@<TRIPOS>MOLECULE
NIL
5096 0 248 0 0
POLYMER
CHARGES


@<TRIPOS>ATOM
1 P -70.7607 93.4747 36.614 NIL 1 G_1    0.000
2 O1P -71.175 92.257 37.346 NIL 1 G_1    0.000
3 O2P -70.106 94.546 37.397 NIL 1 G_1    0.000
4 O5* -69.844 92.956 35.410 NIL 1 G_1    0.000
5 C5* -70.470 92.332 34.275 NIL 1 G_1    0.000
6 C4* -69.418 91.921 33.262 NIL 1 G_1    0.000
7 O4* -69.168 93.090 32.486 NIL 1 G_1    0.000
8 C1* -67.880 93.624 32.720 NIL 1 G_1    0.000
9 N9 -68.080 95.084 32.941 NIL 1 G_1    0.000
10 C8 -68.485 95.745 34.079 NIL 1 G_1    0.000
11 N7 -68.562 97.046 33.942 NIL 1 G_1    0.000
12 C5 -68.182 97.263 32.618 NIL 1 G_1    0.000
13 C6 -68.070 98.473 31.885 NIL 1 G_1    0.000
14 O6 -68.287 99.622 32.260 NIL 1 G_1    0.000
15 N1 -67.650 98.236 30.569 NIL 1 G_1    0.000
16 C2 -67.375 96.994 30.031 NIL 1 G_1    0.000
17 N2 -66.987 96.982 28.754 NIL 1 G_1    0.000
18 N3 -67.480 95.860 30.719 NIL 1 G_1    0.000
19 C4 -67.885 96.071 31.999 NIL 1 G_1    0.000
20 C3* -68.055 91.539 33.839 NIL 1 G_1    0.000
21 C2* -67.342 92.887 33.942 NIL 1 G_1    0.000
22 O3* -67.328 90.689 32.962 NIL 1 G_1    0.000
23 P -65.263 106.011 25.954 NIL 2 C_2    0.000
24 O1P -64.718 106.903 24.906 NIL 2 C_2    0.000
25 O2P -66.516 106.433 26.618 NIL 2 C_2    0.000
26 O5* -65.396 104.575 25.262 NIL 2 C_2    0.000
27 C5* -64.208 103.796 25.038 NIL 2 C_2    0.000
28 C4* -64.568 102.479 24.376 NIL 2 C_2    0.000
29 O4* -64.939 101.611 25.444 NIL 2 C_2    0.000
30 C1* -66.319 101.311 25.436 NIL 2 C_2    0.000
31 N1 -66.789 101.521 26.834 NIL 2 C_2    0.000
32 C6 -67.071 102.767 27.298 NIL 2 C_2    0.000
33 C5 -67.499 102.959 28.573 NIL 2 C_2    0.000
34 C4 -67.636 101.792 29.393 NIL 2 C_2    0.000
35 N4 -68.048 101.906 30.646 NIL 2 C_2    0.000
36 N3 -67.355 100.570 28.925 NIL 2 C_2    0.000
37 C2 -66.928 100.400 27.647 NIL 2 C_2    0.000
38 O2 -66.658 99.286 27.180 NIL 2 C_2    0.000
39 C3* -65.790 102.509 23.458 NIL 2 C_2    0.000
40 C2* -66.946 102.268 24.428 NIL 2 C_2    0.000
41 O3* -65.757 101.463 22.497 NIL 2 C_2    0.000
42 P -66.215 91.153 33.254 NIL 3 G_3    0.000
43 O1P -66.387 89.685 33.179 NIL 3 G_3    0.000
44 O2P -65.588 91.699 34.479 NIL 3 G_3    0.000
45 O5* -65.413 91.556 31.930 NIL 3 G_3    0.000
46 C5* -66.109 91.575 30.672 NIL 3 G_3    0.000
47 C4* -65.161 91.982 29.560 NIL 3 G_3    0.000
48 O4* -65.150 93.408 29.579 NIL 3 G_3    0.000
49 C1* -63.913 93.929 30.018 NIL 3 G_3    0.000
50 N9 -64.246 94.960 31.040 NIL 3 G_3    0.000
51 C8 -64.569 94.796 32.370 NIL 3 G_3    0.000
52 N7 -64.811 95.918 33.002 NIL 3 G_3    0.000
53 C5 -64.637 96.895 32.023 NIL 3 G_3    0.000
54 C6 -64.762 98.306 32.108 NIL 3 G_3    0.000
55 O6 -65.056 98.995 33.080 NIL 3 G_3    0.000
56 N1 -64.497 98.917 30.874 NIL 3 G_3    0.000
57 C2 -64.156 98.253 29.712 NIL 3 G_3    0.000
58 N2 -63.942 99.020 28.641 NIL 3 G_3    0.000
59 N3 -64.039 96.929 29.635 NIL 3 G_3    0.000
60 C4 -64.292 96.320 30.822 NIL 3 G_3    0.000
61 C3* -63.699 91.581 29.753 NIL 3 G_3    0.000
62 C2* -63.137 92.741 30.575 NIL 3 G_3    0.000
63 O3* -63.003 91.501 28.517 NIL 3 G_3    0.000
64 P -63.644 108.214 31.419 NIL 4 C_4    0.000
65 O1P -63.348 109.615 31.044 NIL 4 C_4    0.000
66 O2P -64.838 107.975 32.260 NIL 4 C_4    0.000
67 O5* -63.703 107.408 30.038 NIL 4 C_4    0.000
68 C5* -62.474 107.100 29.357 NIL 4 C_4    0.000
69 C4* -62.767 106.337 28.079 NIL 4 C_4    0.000
70 O4* -62.892 104.974 28.476 NIL 4 C_4    0.000
71 C1* -64.218 104.500 28.360 NIL 4 C_4    0.000
72 N1 -64.518 103.814 29.647 NIL 4 C_4    0.000
73 C6 -64.877 104.521 30.752 NIL 4 C_4    0.000
74 C5 -65.150 103.896 31.925 NIL 4 C_4    0.000
75 C4 -65.043 102.467 31.938 NIL 4 C_4    0.000
76 N4 -65.296 101.791 33.049 NIL 4 C_4    0.000
77 N3 -64.690 101.780 30.845 NIL 4 C_4    0.000
78 C2 -64.420 102.425 29.681 NIL 4 C_4    0.000
79 O2 -64.090 101.825 28.650 NIL 4 C_4    0.000
80 C3* -64.095 106.666 27.398 NIL 4 C_4    0.000
81 C2* -65.078 105.734 28.107 NIL 4 C_4    0.000
82 O3* -64.072 106.355 26.011 NIL 4 C_4    0.000
83 P -61.921 91.904 28.972 NIL 5 G_5    0.000
84 O1P -61.933 90.723 28.080 NIL 5 G_5    0.000
85 O2P -61.203 91.773 30.260 NIL 5 G_5    0.000
86 O5* -61.353 93.105 28.080 NIL 5 G_5    0.000
87 C5* -62.208 93.702 27.090 NIL 5 G_5    0.000
88 C4* -61.468 94.813 26.368 NIL 5 G_5    0.000
89 O4* -61.617 95.964 27.196 NIL 5 G_5    0.000
90 C1* -60.400 96.353 27.799 NIL 5 G_5    0.000
91 N9 -60.710 96.566 29.240 NIL 5 G_5    0.000
92 C8 -60.832 95.638 30.251 NIL 5 G_5    0.000
93 N7 -61.114 96.157 31.421 NIL 5 G_5    0.000
94 C5 -61.184 97.526 31.168 NIL 5 G_5    0.000
95 C6 -61.457 98.605 32.047 NIL 5 G_5    0.000
96 O6 -61.696 98.575 33.251 NIL 5 G_5    0.000
97 N1 -61.429 99.834 31.373 NIL 5 G_5    0.000
98 C2 -61.172 99.998 30.026 NIL 5 G_5    0.000
99 N2 -61.191 101.255 29.575 NIL 5 G_5    0.000
100 N3 -60.916 98.985 29.202 NIL 5 G_5    0.000
101 C4 -60.938 97.786 29.839 NIL 5 G_5    0.000
102 C3* -59.957 94.626 26.233 NIL 5 G_5    0.000
103 C2* -59.426 95.207 27.543 NIL 5 G_5    0.000
104 O3* -59.427 95.367 25.142 NIL 5 G_5    0.000
105 P -61.575 107.237 37.085 NIL 6 C_6    0.000
106 O1P -61.493 108.635 37.564 NIL 6 C_6    0.000
107 O2P -62.611 106.373 37.693 NIL 6 C_6    0.000
108 O5* -61.725 107.340 35.496 NIL 6 C_6    0.000
109 C5* -60.570 107.677 34.707 NIL 6 C_6    0.000
110 C4* -60.941 107.718 33.236 NIL 6 C_6    0.000
111 O4* -60.856 106.367 32.789 NIL 6 C_6    0.000
112 C1* -62.123 105.822 32.483 NIL 6 C_6    0.000
113 N1 -62.170 104.496 33.161 NIL 6 C_6    0.000
114 C6 -62.457 104.396 34.486 NIL 6 C_6    0.000
115 C5 -62.499 103.188 35.104 NIL 6 C_6    0.000
116 C4 -62.229 102.037 34.294 NIL 6 C_6    0.000
117 N4 -62.254 100.826 34.832 NIL 6 C_6    0.000
118 N3 -61.948 102.147 32.990 NIL 6 C_6    0.000
119 C2 -61.911 103.365 32.392 NIL 6 C_6    0.000
120 O2 -61.654 103.507 31.189 NIL 6 C_6    0.000
121 C3* -62.377 108.139 32.925 NIL 6 C_6    0.000
122 C2* -63.144 106.821 33.019 NIL 6 C_6    0.000
123 O3* -62.502 108.663 31.609 NIL 6 C_6    0.000
124 P -58.347 95.624 25.697 NIL 7 G_7    0.000
125 O1P -58.343 95.158 24.292 NIL 7 G_7    0.000
126 O2P -57.454 94.922 26.646 NIL 7 G_7    0.000
127 O5* -58.043 97.193 25.625 NIL 7 G_7    0.000
128 C5* -59.084 98.086 25.192 NIL 7 G_7    0.000
129 C4* -58.578 99.517 25.201 NIL 7 G_7    0.000
130 O4* -58.746 99.966 26.543 NIL 7 G_7    0.000
131 C1* -57.512 100.153 27.205 NIL 7 G_7    0.000
132 N9 -57.649 99.471 28.522 NIL 7 G_7    0.000
133 C8 -57.530 98.133 28.827 NIL 7 G_7    0.000
134 N7 -57.712 97.857 30.095 NIL 7 G_7    0.000
135 C5 -57.970 99.099 30.672 NIL 7 G_7    0.000
136 C6 -58.244 99.442 32.021 NIL 7 G_7    0.000
137 O6 -58.316 98.707 33.002 NIL 7 G_7    0.000
138 N1 -58.446 100.821 32.168 NIL 7 G_7    0.000
139 C2 -58.391 101.748 31.145 NIL 7 G_7    0.000
140 N2 -58.612 103.018 31.493 NIL 7 G_7    0.000
141 N3 -58.133 101.426 29.880 NIL 7 G_7    0.000
142 C4 -57.934 100.092 29.719 NIL 7 G_7    0.000
143 C3* -57.087 99.695 24.916 NIL 7 G_7    0.000
144 C2* -56.457 99.528 26.298 NIL 7 G_7    0.000
145 O3* -56.794 100.994 24.420 NIL 7 G_7    0.000
146 P -58.674 103.638 41.082 NIL 8 C_8    0.000
147 O1P -58.689 104.523 42.269 NIL 8 C_8    0.000
148 O2P -59.515 102.422 41.133 NIL 8 C_8    0.000
149 O5* -59.045 104.581 39.844 NIL 8 C_8    0.000
150 C5* -58.051 105.490 39.338 NIL 8 C_8    0.000
151 C4* -58.616 106.279 38.172 NIL 8 C_8    0.000
152 O4* -58.438 105.443 37.031 NIL 8 C_8    0.000
153 C1* -59.664 104.956 36.525 NIL 8 C_8    0.000
154 N1 -59.469 103.493 36.327 NIL 8 C_8    0.000
155 C6 -59.564 102.625 37.369 NIL 8 C_8    0.000
156 C5 -59.386 101.291 37.189 NIL 8 C_8    0.000
157 C4 -59.097 100.851 35.856 NIL 8 C_8    0.000
158 N4 -58.912 99.563 35.607 NIL 8 C_8    0.000
159 N3 -59.006 101.714 34.837 NIL 8 C_8    0.000
160 C2 -59.187 103.044 35.039 NIL 8 C_8    0.000
161 O2 -59.110 103.872 34.122 NIL 8 C_8    0.000
162 C3* -60.119 106.552 38.221 NIL 8 C_8    0.000
163 C2* -60.712 105.298 37.580 NIL 8 C_8    0.000
164 O3* -60.477 107.689 37.447 NIL 8 C_8    0.000
165 P -55.686 101.078 24.974 NIL 9 G_9    0.000
166 O1P -55.816 101.481 23.555 NIL 9 G_9    0.000
167 O2P -54.602 100.130 25.311 NIL 9 G_9    0.000
168 O5* -55.575 102.446 25.796 NIL 9 G_9    0.000
169 C5* -56.759 103.237 25.997 NIL 9 G_9    0.000
170 C4* -56.423 104.481 26.798 NIL 9 G_9    0.000
171 O4* -56.461 104.071 28.163 NIL 9 G_9    0.000
172 C1* -55.179 104.063 28.757 NIL 9 G_9    0.000
173 N9 -55.062 102.752 29.454 NIL 9 G_9    0.000
174 C8 -54.752 101.514 28.935 NIL 9 G_9    0.000
175 N7 -54.731 100.553 29.826 NIL 9 G_9    0.000
176 C5 -55.050 101.199 31.019 NIL 9 G_9    0.000
177 C6 -55.180 100.679 32.333 NIL 9 G_9    0.000
178 O6 -55.037 99.524 32.722 NIL 9 G_9    0.000
179 N1 -55.516 101.686 33.250 NIL 9 G_9    0.000
180 C2 -55.703 103.018 32.937 NIL 9 G_9    0.000
181 N2 -56.019 103.820 33.957 NIL 9 G_9    0.000
182 N3 -55.581 103.504 31.704 NIL 9 G_9    0.000
183 C4 -55.254 102.542 30.803 NIL 9 G_9    0.000
184 C3* -55.013 105.037 26.599 NIL 9 G_9    0.000
185 C2* -54.190 104.238 27.609 NIL 9 G_9    0.000
186 O3* -54.938 106.419 26.921 NIL 9 G_9    0.000
187 P -54.877 98.976 42.177 NIL 10 C_10    0.000
188 O1P -54.835 99.033 43.656 NIL 10 C_10    0.000
189 O2P -55.561 97.816 41.563 NIL 10 C_10    0.000
190 O5* -55.514 100.370 41.717 NIL 10 C_10    0.000
191 C5* -54.706 101.559 41.775 NIL 10 C_10    0.000
192 C4* -55.507 102.754 41.295 NIL 10 C_10    0.000
193 O4* -55.388 102.740 39.874 NIL 10 C_10    0.000
194 C1* -56.607 102.418 39.237 NIL 10 C_10    0.000
195 N1 -56.276 101.371 38.230 NIL 10 C_10    0.000
196 C6 -56.132 100.069 38.594 NIL 10 C_10    0.000
197 C5 -55.829 99.114 37.677 NIL 10 C_10    0.000
198 C4 -55.671 99.547 36.320 NIL 10 C_10    0.000
199 N4 -55.375 98.669 35.373 NIL 10 C_10    0.000
200 N3 -55.815 100.832 35.973 NIL 10 C_10    0.000
201 C2 -56.118 101.771 36.906 NIL 10 C_10    0.000
202 O2 -56.258 102.967 36.623 NIL 10 C_10    0.000
203 C3* -57.012 102.695 41.558 NIL 10 C_10    0.000
204 C2* -57.538 101.931 40.343 NIL 10 C_10    0.000
205 O3* -57.596 103.990 41.588 NIL 10 C_10    0.000
206 P -53.783 106.366 27.373 NIL 11 G_11    0.000
207 O1P -54.145 107.462 26.446 NIL 11 G_11    0.000
208 O2P -52.563 105.590 27.060 NIL 11 G_11    0.000
209 O5* -53.720 107.039 28.823 NIL 11 G_11    0.000
210 C5* -54.950 107.371 29.492 NIL 11 G_11    0.000
211 C4* -54.654 107.994 30.843 NIL 11 G_11    0.000
212 O4* -54.463 106.894 31.730 NIL 11 G_11    0.000
213 C1* -53.122 106.774 32.156 NIL 11 G_11    0.000
214 N9 -52.765 105.339 31.975 NIL 11 G_11    0.000
215 C8 -52.387 104.674 30.829 NIL 11 G_11    0.000
216 N7 -52.139 103.399 31.010 NIL 11 G_11    0.000
217 C5 -52.368 103.206 32.372 NIL 11 G_11    0.000
218 C6 -52.263 102.031 33.159 NIL 11 G_11    0.000
219 O6 -51.939 100.899 32.811 NIL 11 G_11    0.000
220 N1 -52.586 102.282 34.499 NIL 11 G_11    0.000
221 C2 -52.963 103.508 35.012 NIL 11 G_11    0.000
222 N2 -53.231 103.540 36.319 NIL 11 G_11    0.000
223 N3 -53.062 104.611 34.272 NIL 11 G_11    0.000
224 C4 -52.750 104.385 32.969 NIL 11 G_11    0.000
225 C3* -53.355 108.795 30.935 NIL 11 G_11    0.000
226 C2* -52.319 107.722 31.271 NIL 11 G_11    0.000
227 O3* -53.396 109.753 31.984 NIL 11 G_11    0.000
228 P -50.464 95.217 40.246 NIL 12 C_12    0.000
229 O1P -50.232 94.447 41.489 NIL 12 C_12    0.000
230 O2P -51.086 94.500 39.111 NIL 12 C_12    0.000
231 O5* -51.310 96.499 40.692 NIL 12 C_12    0.000
232 C5* -50.643 97.570 41.382 NIL 12 C_12    0.000
233 C4* -51.631 98.675 41.706 NIL 12 C_12    0.000
234 O4* -51.701 99.474 40.527 NIL 12 C_12    0.000
235 C1* -52.949 99.360 39.875 NIL 12 C_12    0.000
236 N1 -52.637 99.125 38.438 NIL 12 C_12    0.000
237 C6 -52.299 97.888 37.987 NIL 12 C_12    0.000
238 C5 -52.013 97.673 36.677 NIL 12 C_12    0.000
239 C4 -52.087 98.807 35.804 NIL 12 C_12    0.000
240 N4 -51.822 98.670 34.514 NIL 12 C_12    0.000
241 N3 -52.422 100.021 36.259 NIL 12 C_12    0.000
242 C2 -52.703 100.214 37.573 NIL 12 C_12    0.000
243 O2 -53.015 101.322 38.030 NIL 12 C_12    0.000
244 C3* -53.070 98.226 41.955 NIL 12 C_12    0.000
245 C2* -53.663 98.192 40.547 NIL 12 C_12    0.000
246 O3* -53.790 99.164 42.745 NIL 12 C_12    0.000
247 P -52.193 109.653 32.273 NIL 13 G_13    0.000
248 O1P -52.797 110.999 32.154 NIL 13 G_13    0.000
249 O2P -50.944 109.402 31.519 NIL 13 G_13    0.000
250 O5* -52.015 109.404 33.843 NIL 13 G_13    0.000
251 C5* -53.174 109.094 34.636 NIL 13 G_13    0.000
252 C4* -52.775 108.898 36.086 NIL 13 G_13    0.000
253 O4* -52.344 107.542 36.178 NIL 13 G_13    0.000
254 C1* -50.953 107.435 36.398 NIL 13 G_13    0.000
255 N9 -50.462 106.429 35.415 NIL 13 G_13    0.000
256 C8 -50.167 106.589 34.079 NIL 13 G_13    0.000
257 N7 -49.753 105.494 33.489 NIL 13 G_13    0.000
258 C5 -49.776 104.540 34.506 NIL 13 G_13    0.000
259 C6 -49.434 103.164 34.476 NIL 13 G_13    0.000
260 O6 -49.033 102.491 33.531 NIL 13 G_13    0.000
261 N1 -49.604 102.567 35.734 NIL 13 G_13    0.000
262 C2 -50.046 103.216 36.870 NIL 13 G_13    0.000
263 N2 -50.139 102.468 37.972 NIL 13 G_13    0.000
264 N3 -50.367 104.507 36.897 NIL 13 G_13    0.000
265 C4 -50.208 105.102 35.686 NIL 13 G_13    0.000
266 C3* -51.575 109.718 36.560 NIL 13 G_13    0.000
267 C2* -50.389 108.834 36.177 NIL 13 G_13    0.000
268 O3* -51.585 109.907 37.969 NIL 13 G_13    0.000
269 P -45.946 93.981 36.321 NIL 14 C_14    0.000
270 O1P -45.466 92.702 36.891 NIL 14 C_14    0.000
271 O2P -46.628 93.924 35.009 NIL 14 C_14    0.000
272 O5* -46.867 94.632 37.456 NIL 14 C_14    0.000
273 C5* -46.239 95.232 38.603 NIL 14 C_14    0.000
274 C4* -47.295 95.783 39.543 NIL 14 C_14    0.000
275 O4* -47.611 97.077 39.035 NIL 14 C_14    0.000
276 C1* -48.914 97.137 38.492 NIL 14 C_14    0.000
277 N1 -48.771 97.799 37.165 NIL 14 C_14    0.000
278 C6 -48.357 97.100 36.074 NIL 14 C_14    0.000
279 C5 -48.226 97.703 34.865 NIL 14 C_14    0.000
280 C4 -48.544 99.099 34.799 NIL 14 C_14    0.000
281 N4 -48.438 99.751 33.651 NIL 14 C_14    0.000
282 N3 -48.951 99.777 35.879 NIL 14 C_14    0.000
283 C2 -49.075 99.155 37.080 NIL 14 C_14    0.000
284 O2 -49.447 99.748 38.100 NIL 14 C_14    0.000
285 C3* -48.628 95.036 39.556 NIL 14 C_14    0.000
286 C2* -49.395 95.692 38.407 NIL 14 C_14    0.000
287 O3* -49.338 95.238 40.770 NIL 14 C_14    0.000
288 P -50.351 109.868 38.095 NIL 15 G_15    0.000
289 O1P -51.115 110.927 38.792 NIL 15 G_15    0.000
290 O2P -49.193 110.295 37.278 NIL 15 G_15    0.000
291 O5* -49.939 108.822 39.233 NIL 15 G_15    0.000
292 C5* -50.940 107.932 39.758 NIL 15 G_15    0.000
293 C4* -50.331 107.034 40.818 NIL 15 G_15    0.000
294 O4* -49.741 105.952 40.100 NIL 15 G_15    0.000
295 C1* -48.329 105.977 40.158 NIL 15 G_15    0.000
296 N9 -47.862 105.789 38.756 NIL 15 G_15    0.000
297 C8 -47.767 106.713 37.738 NIL 15 G_15    0.000
298 N7 -47.314 106.221 36.611 NIL 15 G_15    0.000
299 C5 -47.093 104.875 36.902 NIL 15 G_15    0.000
300 C6 -46.603 103.830 36.077 NIL 15 G_15    0.000
301 O6 -46.257 103.877 34.900 NIL 15 G_15    0.000
302 N1 -46.535 102.616 36.775 NIL 15 G_15    0.000
303 C2 -46.894 102.436 38.097 NIL 15 G_15    0.000
304 N2 -46.754 101.199 38.578 NIL 15 G_15    0.000
305 N3 -47.353 103.418 38.870 NIL 15 G_15    0.000
306 C4 -47.425 104.602 38.209 NIL 15 G_15    0.000
307 C3* -49.180 107.639 41.621 NIL 15 G_15    0.000
308 C2* -47.962 107.334 40.749 NIL 15 G_15    0.000
309 O3* -49.025 107.007 42.884 NIL 15 G_15    0.000
310 P -41.879 95.924 32.195 NIL 16 C_16    0.000
311 O1P -41.185 94.648 31.911 NIL 16 C_16    0.000
312 O2P -42.718 96.493 31.117 NIL 16 C_16    0.000
313 O5* -42.709 95.666 33.539 NIL 16 C_16    0.000
314 C5* -42.007 95.622 34.793 NIL 16 C_16    0.000
315 C4* -42.985 95.368 35.926 NIL 16 C_16    0.000
316 O4* -43.511 96.650 36.262 NIL 16 C_16    0.000
317 C1* -44.872 96.781 35.908 NIL 16 C_16    0.000
318 N1 -44.983 98.082 35.191 NIL 16 C_16    0.000
319 C6 -44.641 98.191 33.880 NIL 16 C_16    0.000
320 C5 -44.740 99.377 33.226 NIL 16 C_16    0.000
321 C4 -45.221 100.495 33.983 NIL 16 C_16    0.000
322 N4 -45.344 101.682 33.408 NIL 16 C_16    0.000
323 N3 -45.555 100.376 35.273 NIL 16 C_16    0.000
324 C2 -45.447 99.181 35.909 NIL 16 C_16    0.000
325 O2 -45.746 99.033 37.101 NIL 16 C_16    0.000
326 C3* -44.211 94.528 35.569 NIL 16 C_16    0.000
327 C2* -45.192 95.571 35.036 NIL 16 C_16    0.000
328 O3* -44.771 93.896 36.712 NIL 16 C_16    0.000
329 P -11.164 -47.711 29.937 NIL 17 G_17    0.000
330 O1P -11.877 -46.958 30.993 NIL 17 G_17    0.000
331 O2P -11.814 -47.798 28.610 NIL 17 G_17    0.000
332 O5* -9.707 -47.057 29.857 NIL 17 G_17    0.000
333 C5* -8.751 -47.353 30.891 NIL 17 G_17    0.000
334 C4* -7.446 -46.630 30.614 NIL 17 G_17    0.000
335 O4* -6.735 -47.473 29.711 NIL 17 G_17    0.000
336 C1* -6.633 -46.910 28.419 NIL 17 G_17    0.000
337 N9 -7.027 -47.990 27.472 NIL 17 G_17    0.000
338 C8 -8.287 -48.415 27.111 NIL 17 G_17    0.000
339 N7 -8.290 -49.399 26.246 NIL 17 G_17    0.000
340 C5 -6.937 -49.645 26.017 NIL 17 G_17    0.000
341 C6 -6.311 -50.598 25.173 NIL 17 G_17    0.000
342 O6 -6.829 -51.435 24.440 NIL 17 G_17    0.000
343 N1 -4.913 -50.503 25.243 NIL 17 G_17    0.000
344 C2 -4.214 -49.606 26.026 NIL 17 G_17    0.000
345 N2 -2.883 -49.676 25.950 NIL 17 G_17    0.000
346 N3 -4.803 -48.712 26.817 NIL 17 G_17    0.000
347 C4 -6.157 -48.789 26.762 NIL 17 G_17    0.000
348 C3* -7.569 -45.294 29.882 NIL 17 G_17    0.000
349 C2* -7.579 -45.713 28.412 NIL 17 G_17    0.000
350 O3* -6.450 -44.452 30.123 NIL 17 G_17    0.000
351 P -0.496 -55.475 18.669 NIL 18 C_18    0.000
352 O1P 0.583 -56.001 17.804 NIL 18 C_18    0.000
353 O2P -1.528 -56.434 19.124 NIL 18 C_18    0.000
354 O5* 0.249 -54.760 19.891 NIL 18 C_18    0.000
355 C5* 0.874 -53.483 19.676 NIL 18 C_18    0.000
356 C4* 1.515 -52.995 20.962 NIL 18 C_18    0.000
357 O4* 0.464 -52.363 21.690 NIL 18 C_18    0.000
358 C1* 0.099 -53.090 22.845 NIL 18 C_18    0.000
359 N1 -1.387 -53.179 22.817 NIL 18 C_18    0.000
360 C6 -2.020 -54.103 22.046 NIL 18 C_18    0.000
361 C5 -3.375 -54.184 22.019 NIL 18 C_18    0.000
362 C4 -4.095 -53.254 22.837 NIL 18 C_18    0.000
363 N4 -5.420 -53.277 22.860 NIL 18 C_18    0.000
364 N3 -3.463 -52.348 23.593 NIL 18 C_18    0.000
365 C2 -2.106 -52.284 23.604 NIL 18 C_18    0.000
366 O2 -1.486 -51.460 24.289 NIL 18 C_18    0.000
367 C3* 2.034 -54.085 21.900 NIL 18 C_18    0.000
368 C2* 0.797 -54.441 22.723 NIL 18 C_18    0.000
369 O3* 3.051 -53.599 22.766 NIL 18 C_18    0.000
370 P -6.448 -43.943 28.991 NIL 19 G_19    0.000
371 O1P -6.298 -43.068 30.177 NIL 19 G_19    0.000
372 O2P -7.481 -43.569 28.000 NIL 19 G_19    0.000
373 O5* -4.988 -44.032 28.342 NIL 19 G_19    0.000
374 C5* -3.991 -44.850 28.979 NIL 19 G_19    0.000
375 C4* -2.692 -44.788 28.197 NIL 19 G_19    0.000
376 O4* -2.830 -45.757 27.161 NIL 19 G_19    0.000
377 C1* -2.937 -45.164 25.883 NIL 19 G_19    0.000
378 N9 -4.097 -45.825 25.223 NIL 19 G_19    0.000
379 C8 -5.444 -45.575 25.374 NIL 19 G_19    0.000
380 N7 -6.214 -46.343 24.642 NIL 19 G_19    0.000
381 C5 -5.315 -47.159 23.957 NIL 19 G_19    0.000
382 C6 -5.554 -48.192 23.015 NIL 19 G_19    0.000
383 O6 -6.625 -48.606 22.581 NIL 19 G_19    0.000
384 N1 -4.354 -48.763 22.567 NIL 19 G_19    0.000
385 C2 -3.090 -48.385 22.977 NIL 19 G_19    0.000
386 N2 -2.072 -49.055 22.430 NIL 19 G_19    0.000
387 N3 -2.867 -47.416 23.861 NIL 19 G_19    0.000
388 C4 -4.020 -46.851 24.306 NIL 19 G_19    0.000
389 C3* -2.420 -43.474 27.466 NIL 19 G_19    0.000
390 C2* -3.142 -43.673 26.133 NIL 19 G_19    0.000
391 O3* -1.033 -43.278 27.224 NIL 19 G_19    0.000
392 P -5.430 -54.442 15.216 NIL 20 C_20    0.000
393 O1P -5.109 -55.306 14.058 NIL 20 C_20    0.000
394 O2P -6.557 -54.859 16.080 NIL 20 C_20    0.000
395 O5* -4.061 -54.295 16.031 NIL 20 C_20    0.000
396 C5* -3.030 -53.436 15.513 NIL 20 C_20    0.000
397 C4* -1.830 -53.449 16.440 NIL 20 C_20    0.000
398 O4* -2.127 -52.488 17.452 NIL 20 C_20    0.000
399 C1* -2.358 -53.088 18.710 NIL 20 C_20    0.000
400 N1 -3.613 -52.475 19.228 NIL 20 C_20    0.000
401 C6 -4.831 -52.909 18.807 NIL 20 C_20    0.000
402 C5 -5.975 -52.350 19.278 NIL 20 C_20    0.000
403 C4 -5.832 -51.291 20.233 NIL 20 C_20    0.000
404 N4 -6.907 -50.701 20.735 NIL 20 C_20    0.000
405 N3 -4.628 -50.872 20.641 NIL 20 C_20    0.000
406 C2 -3.496 -51.444 20.156 NIL 20 C_20    0.000
407 O2 -2.366 -51.083 20.509 NIL 20 C_20    0.000
408 C3* -1.593 -54.752 17.202 NIL 20 C_20    0.000
409 C2* -2.472 -54.585 18.441 NIL 20 C_20    0.000
410 O3* -0.237 -54.893 17.604 NIL 20 C_20    0.000
411 P -1.190 -42.704 26.135 NIL 21 G_21    0.000
412 O1P -0.241 -42.138 27.119 NIL 21 G_21    0.000
413 O2P -2.199 -41.787 25.561 NIL 21 G_21    0.000
414 O5* -0.279 -43.386 25.009 NIL 21 G_21    0.000
415 C5* 0.367 -44.638 25.299 NIL 21 G_21    0.000
416 C4* 1.172 -45.096 24.098 NIL 21 G_21    0.000
417 O4* 0.240 -45.768 23.254 NIL 21 G_21    0.000
418 C1* -0.016 -45.054 22.062 NIL 21 G_21    0.000
419 N9 -1.499 -45.025 21.917 NIL 21 G_21    0.000
420 C8 -2.418 -44.199 22.527 NIL 21 G_21    0.000
421 N7 -3.660 -44.435 22.180 NIL 21 G_21    0.000
422 C5 -3.557 -45.492 21.277 NIL 21 G_21    0.000
423 C6 -4.568 -46.185 20.562 NIL 21 G_21    0.000
424 O6 -5.782 -46.004 20.577 NIL 21 G_21    0.000
425 N1 -4.023 -47.191 19.752 NIL 21 G_21    0.000
426 C2 -2.678 -47.490 19.649 NIL 21 G_21    0.000
427 N2 -2.362 -48.488 18.820 NIL 21 G_21    0.000
428 N3 -1.731 -46.840 20.320 NIL 21 G_21    0.000
429 C4 -2.241 -45.859 21.110 NIL 21 G_21    0.000
430 C3* 1.754 -43.984 23.225 NIL 21 G_21    0.000
431 C2* 0.607 -43.677 22.262 NIL 21 G_21    0.000
432 O3* 2.883 -44.427 22.484 NIL 21 G_21    0.000
433 P -10.151 -50.863 13.718 NIL 22 C_22    0.000
434 O1P -10.705 -51.642 12.588 NIL 22 C_22    0.000
435 O2P -10.955 -50.805 14.959 NIL 22 C_22    0.000
436 O5* -8.688 -51.459 13.969 NIL 22 C_22    0.000
437 C5* -7.632 -51.122 13.053 NIL 22 C_22    0.000
438 C4* -6.340 -51.793 13.481 NIL 22 C_22    0.000
439 O4* -5.773 -50.924 14.460 NIL 22 C_22    0.000
440 C1* -5.799 -51.486 15.756 NIL 22 C_22    0.000
441 N1 -6.344 -50.424 16.647 NIL 22 C_22    0.000
442 C6 -7.682 -50.195 16.728 NIL 22 C_22    0.000
443 C5 -8.179 -49.227 17.540 NIL 22 C_22    0.000
444 C4 -7.230 -48.469 18.300 NIL 22 C_22    0.000
445 N4 -7.645 -47.509 19.113 NIL 22 C_22    0.000
446 N3 -5.915 -48.703 18.213 NIL 22 C_22    0.000
447 C2 -5.438 -49.675 17.394 NIL 22 C_22    0.000
448 O2 -4.230 -49.920 17.286 NIL 22 C_22    0.000
449 C3* -6.494 -53.134 14.197 NIL 22 C_22    0.000
450 C2* -6.691 -52.719 15.655 NIL 22 C_22    0.000
451 O3* -5.321 -53.930 14.090 NIL 22 C_22    0.000
452 P 2.643 -43.728 21.487 NIL 23 G_23    0.000
453 O1P 4.024 -43.779 22.017 NIL 23 G_23    0.000
454 O2P 2.057 -42.389 21.253 NIL 23 G_23    0.000
455 O5* 2.664 -44.622 20.160 NIL 23 G_23    0.000
456 C5* 2.699 -46.054 20.286 NIL 23 G_23    0.000
457 C4* 2.713 -46.696 18.911 NIL 23 G_23    0.000
458 O4* 1.346 -46.760 18.512 NIL 23 G_23    0.000
459 C1* 1.055 -45.880 17.446 NIL 23 G_23    0.000
460 N9 -0.182 -45.152 17.846 NIL 23 G_23    0.000
461 C8 -0.322 -44.069 18.686 NIL 23 G_23    0.000
462 N7 -1.560 -43.664 18.830 NIL 23 G_23    0.000
463 C5 -2.292 -44.539 18.030 NIL 23 G_23    0.000
464 C6 -3.688 -44.600 17.780 NIL 23 G_23    0.000
465 O6 -4.580 -43.881 18.221 NIL 23 G_23    0.000
466 N1 -4.005 -45.647 16.903 NIL 23 G_23    0.000
467 C2 -3.094 -46.520 16.342 NIL 23 G_23    0.000
468 N2 -3.599 -47.451 15.529 NIL 23 G_23    0.000
469 N3 -1.785 -46.462 16.576 NIL 23 G_23    0.000
470 C4 -1.459 -45.452 17.424 NIL 23 G_23    0.000
471 C3* 3.400 -45.889 17.809 NIL 23 G_23    0.000
472 C2* 2.278 -44.980 17.307 NIL 23 G_23    0.000
473 O3* 3.845 -46.717 16.744 NIL 23 G_23    0.000
474 P -12.814 -45.363 13.778 NIL 24 C_24    0.000
475 O1P -14.026 -45.665 12.984 NIL 24 C_24    0.000
476 O2P -13.001 -45.080 15.218 NIL 24 C_24    0.000
477 O5* -11.822 -46.592 13.524 NIL 24 C_24    0.000
478 C5* -11.131 -46.682 12.266 NIL 24 C_24    0.000
479 C4* -10.250 -47.918 12.245 NIL 24 C_24    0.000
480 O4* -9.039 -47.526 12.886 NIL 24 C_24    0.000
481 C1* -8.869 -48.153 14.141 NIL 24 C_24    0.000
482 N1 -8.497 -47.067 15.091 NIL 24 C_24    0.000
483 C6 -9.443 -46.256 15.634 NIL 24 C_24    0.000
484 C5 -9.104 -45.266 16.499 NIL 24 C_24    0.000
485 C4 -7.712 -45.123 16.806 NIL 24 C_24    0.000
486 N4 -7.310 -44.178 17.643 NIL 24 C_24    0.000
487 N3 -6.789 -45.928 16.266 NIL 24 C_24    0.000
488 C2 -7.149 -46.912 15.403 NIL 24 C_24    0.000
489 O2 -6.324 -47.674 14.883 NIL 24 C_24    0.000
490 C3* -10.755 -49.107 13.062 NIL 24 C_24    0.000
491 C2* -10.206 -48.814 14.459 NIL 24 C_24    0.000
492 O3* -10.218 -50.337 12.596 NIL 24 C_24    0.000
493 P 3.629 -45.880 15.853 NIL 25 G_25    0.000
494 O1P 4.909 -46.623 15.850 NIL 25 G_25    0.000
495 O2P 3.703 -44.405 15.752 NIL 25 G_25    0.000
496 O5* 2.759 -46.527 14.677 NIL 25 G_25    0.000
497 C5* 2.157 -47.817 14.884 NIL 25 G_25    0.000
498 C4* 1.383 -48.233 13.647 NIL 25 G_25    0.000
499 O4* 0.106 -47.613 13.777 NIL 25 G_25    0.000
500 C1* -0.089 -46.584 12.828 NIL 25 G_25    0.000
501 N9 -0.607 -45.417 13.594 NIL 25 G_25    0.000
502 C8 0.084 -44.494 14.348 NIL 25 G_25    0.000
503 N7 -0.676 -43.580 14.901 NIL 25 G_25    0.000
504 C5 -1.962 -43.922 14.485 NIL 25 G_25    0.000
505 C6 -3.208 -43.302 14.763 NIL 25 G_25    0.000
506 O6 -3.437 -42.306 15.444 NIL 25 G_25    0.000
507 N1 -4.266 -43.977 14.138 NIL 25 G_25    0.000
508 C2 -4.137 -45.104 13.349 NIL 25 G_25    0.000
509 N2 -5.270 -45.597 12.844 NIL 25 G_25    0.000
510 N3 -2.968 -45.684 13.089 NIL 25 G_25    0.000
511 C4 -1.931 -45.042 13.687 NIL 25 G_25    0.000
512 C3* 1.931 -47.717 12.317 NIL 25 G_25    0.000
513 C2* 1.275 -46.343 12.191 NIL 25 G_25    0.000
514 O3* 1.527 -48.533 11.225 NIL 25 G_25    0.000
515 P -12.360 -39.301 14.402 NIL 26 C_26    0.000
516 O1P -13.762 -38.917 14.125 NIL 26 C_26    0.000
517 O2P -11.871 -39.127 15.788 NIL 26 C_26    0.000
518 O5* -12.225 -40.813 13.896 NIL 26 C_26    0.000
519 C5* -12.150 -41.070 12.482 NIL 26 C_26    0.000
520 C4* -12.026 -42.562 12.233 NIL 26 C_26    0.000
521 O4* -10.636 -42.850 12.362 NIL 26 C_26    0.000
522 C1* -10.353 -43.621 13.512 NIL 26 C_26    0.000
523 N1 -9.206 -42.945 14.182 NIL 26 C_26    0.000
524 C6 -9.400 -41.854 14.971 NIL 26 C_26    0.000
525 C5 -8.355 -41.237 15.581 NIL 26 C_26    0.000
526 C4 -7.053 -41.791 15.352 NIL 26 C_26    0.000
527 N4 -5.989 -41.239 15.917 NIL 26 C_26    0.000
528 N3 -6.874 -42.865 14.574 NIL 26 C_26    0.000
529 C2 -7.933 -43.466 13.972 NIL 26 C_26    0.000
530 O2 -7.807 -44.460 13.246 NIL 26 C_26    0.000
531 C3* -12.707 -43.466 13.261 NIL 26 C_26    0.000
532 C2* -11.634 -43.619 14.339 NIL 26 C_26    0.000
533 O3* -13.016 -44.744 12.721 NIL 26 C_26    0.000
534 P 1.434 -47.597 10.415 NIL 27 G_27    0.000
535 O1P 2.118 -48.842 10.002 NIL 27 G_27    0.000
536 O2P 2.151 -46.322 10.188 NIL 27 G_27    0.000
537 O5* 0.011 -47.631 9.684 NIL 27 G_27    0.000
538 C5* -1.010 -48.510 10.187 NIL 27 G_27    0.000
539 C4* -2.267 -48.379 9.347 NIL 27 G_27    0.000
540 O4* -2.963 -47.257 9.885 NIL 27 G_27    0.000
541 C1* -2.971 -46.156 9.000 NIL 27 G_27    0.000
542 N9 -2.571 -44.976 9.816 NIL 27 G_27    0.000
543 C8 -1.313 -44.568 10.200 NIL 27 G_27    0.000
544 N7 -1.303 -43.476 10.924 NIL 27 G_27    0.000
545 C5 -2.651 -43.134 11.027 NIL 27 G_27    0.000
546 C6 -3.269 -42.044 11.692 NIL 27 G_27    0.000
547 O6 -2.747 -41.139 12.336 NIL 27 G_27    0.000
548 N1 -4.663 -42.078 11.542 NIL 27 G_27    0.000
549 C2 -5.366 -43.040 10.844 NIL 27 G_27    0.000
550 N2 -6.693 -42.893 10.819 NIL 27 G_27    0.000
551 N3 -4.785 -44.062 10.221 NIL 27 G_27    0.000
552 C4 -3.433 -44.044 10.354 NIL 27 G_27    0.000
553 C3* -2.049 -48.030 7.875 NIL 27 G_27    0.000
554 C2* -1.977 -46.504 7.897 NIL 27 G_27    0.000
555 O3* -3.144 -48.438 7.065 NIL 27 G_27    0.000
556 P -8.919 -34.251 14.382 NIL 28 C_28    0.000
557 O1P -9.971 -33.233 14.604 NIL 28 C_28    0.000
558 O2P -7.955 -34.479 15.480 NIL 28 C_28    0.000
559 O5* -9.700 -35.586 13.971 NIL 28 C_28    0.000
560 C5* -10.258 -35.688 12.649 NIL 28 C_28    0.000
561 C4* -10.947 -37.029 12.479 NIL 28 C_28    0.000
562 O4* -9.912 -37.940 12.117 NIL 28 C_28    0.000
563 C1* -9.641 -38.878 13.138 NIL 28 C_28    0.000
564 N1 -8.160 -38.889 13.297 NIL 28 C_28    0.000
565 C6 -7.526 -37.929 14.022 NIL 28 C_28    0.000
566 C5 -6.176 -37.938 14.167 NIL 28 C_28    0.000
567 C4 -5.463 -39.002 13.523 NIL 28 C_28    0.000
568 N4 -4.144 -39.073 13.622 NIL 28 C_28    0.000
569 N3 -6.097 -39.942 12.812 NIL 28 C_28    0.000
570 C2 -7.448 -39.914 12.679 NIL 28 C_28    0.000
571 O2 -8.070 -40.765 12.030 NIL 28 C_28    0.000
572 C3* -11.562 -37.624 13.746 NIL 28 C_28    0.000
573 C2* -10.386 -38.376 14.371 NIL 28 C_28    0.000
574 O3* -12.603 -38.545 13.448 NIL 28 C_28    0.000
575 P -3.063 -47.480 6.279 NIL 29 G_29    0.000
576 O1P -3.241 -48.846 5.737 NIL 29 G_29    0.000
577 O2P -1.963 -46.666 5.717 NIL 29 G_29    0.000
578 O5* -4.488 -46.770 6.117 NIL 29 G_29    0.000
579 C5* -5.551 -47.127 7.017 NIL 29 G_29    0.000
580 C4* -6.802 -46.336 6.683 NIL 29 G_29    0.000
581 O4* -6.648 -45.088 7.354 NIL 29 G_29    0.000
582 C1* -6.448 -44.017 6.455 NIL 29 G_29    0.000
583 N9 -5.282 -43.255 6.984 NIL 29 G_29    0.000
584 C8 -3.936 -43.522 6.856 NIL 29 G_29    0.000
585 N7 -3.160 -42.647 7.447 NIL 29 G_29    0.000
586 C5 -4.053 -41.735 8.006 NIL 29 G_29    0.000
587 C6 -3.807 -40.565 8.769 NIL 29 G_29    0.000
588 O6 -2.732 -40.083 9.114 NIL 29 G_29    0.000
589 N1 -5.004 -39.933 9.137 NIL 29 G_29    0.000
590 C2 -6.271 -40.375 8.812 NIL 29 G_29    0.000
591 N2 -7.284 -39.629 9.259 NIL 29 G_29    0.000
592 N3 -6.501 -41.473 8.095 NIL 29 G_29    0.000
593 C4 -5.352 -42.098 7.729 NIL 29 G_29    0.000
594 C3* -6.979 -45.965 5.211 NIL 29 G_29    0.000
595 C2* -6.195 -44.658 5.095 NIL 29 G_29    0.000
596 O3* -8.341 -45.726 4.884 NIL 29 G_29    0.000
597 P -3.766 -31.399 12.754 NIL 30 C_30    0.000
598 O1P -4.060 -30.042 13.268 NIL 30 C_30    0.000
599 O2P -2.706 -32.169 13.442 NIL 30 C_30    0.000
600 O5* -5.170 -32.165 12.751 NIL 30 C_30    0.000
601 C5* -6.135 -31.849 11.732 NIL 30 C_30    0.000
602 C4* -7.383 -32.690 11.920 NIL 30 C_30    0.000
603 O4* -7.102 -33.930 11.274 NIL 30 C_30    0.000
604 C1* -6.965 -34.995 12.193 NIL 30 C_30    0.000
605 N1 -5.716 -35.707 11.805 NIL 30 C_30    0.000
606 C6 -4.496 -35.238 12.180 NIL 30 C_30    0.000
607 C5 -3.357 -35.887 11.826 NIL 30 C_30    0.000
608 C4 -3.506 -37.080 11.046 NIL 30 C_30    0.000
609 N4 -2.438 -37.764 10.666 NIL 30 C_30    0.000
610 N3 -4.712 -37.533 10.683 NIL 30 C_30    0.000
611 C2 -5.839 -36.868 11.047 NIL 30 C_30    0.000
612 O2 -6.971 -37.256 10.729 NIL 30 C_30    0.000
613 C3* -7.715 -33.072 13.362 NIL 30 C_30    0.000
614 C2* -6.898 -34.347 13.572 NIL 30 C_30    0.000
615 O3* -9.096 -33.366 13.529 NIL 30 C_30    0.000
616 P -8.102 -44.833 4.055 NIL 31 G_31    0.000
617 O1P -9.079 -45.892 3.714 NIL 31 G_31    0.000
618 O2P -7.026 -44.564 3.076 NIL 31 G_31    0.000
619 O5* -8.978 -43.532 4.369 NIL 31 G_31    0.000
620 C5* -9.690 -43.455 5.616 NIL 31 G_31    0.000
621 C4* -10.447 -42.143 5.701 NIL 31 G_31    0.000
622 O4* -9.499 -41.192 6.180 NIL 31 G_31    0.000
623 C1* -9.149 -40.241 5.195 NIL 31 G_31    0.000
624 N9 -7.661 -40.171 5.210 NIL 31 G_31    0.000
625 C8 -6.743 -41.014 4.622 NIL 31 G_31    0.000
626 N7 -5.495 -40.669 4.827 NIL 31 G_31    0.000
627 C5 -5.592 -39.517 5.605 NIL 31 G_31    0.000
628 C6 -4.574 -38.687 6.141 NIL 31 G_31    0.000
629 O6 -3.356 -38.799 6.037 NIL 31 G_31    0.000
630 N1 -5.115 -37.619 6.871 NIL 31 G_31    0.000
631 C2 -6.464 -37.385 7.059 NIL 31 G_31    0.000
632 N2 -6.775 -36.311 7.788 NIL 31 G_31    0.000
633 N3 -7.418 -38.164 6.556 NIL 31 G_31    0.000
634 C4 -6.911 -39.204 5.844 NIL 31 G_31    0.000
635 C3* -10.933 -41.570 4.370 NIL 31 G_31    0.000
636 C2* -9.725 -40.770 3.885 NIL 31 G_31    0.000
637 O3* -12.038 -40.692 4.543 NIL 31 G_31    0.000
638 P 1.175 -31.093 9.171 NIL 32 C_32    0.000
639 O1P 1.756 -29.821 9.658 NIL 32 C_32    0.000
640 O2P 1.911 -32.338 9.482 NIL 32 C_32    0.000
641 O5* -0.324 -31.117 9.731 NIL 32 C_32    0.000
642 C5* -1.314 -30.278 9.110 NIL 32 C_32    0.000
643 C4* -2.654 -30.461 9.798 NIL 32 C_32    0.000
644 O4* -3.237 -31.609 9.185 NIL 32 C_32    0.000
645 C1* -3.304 -32.712 10.066 NIL 32 C_32    0.000
646 N1 -2.765 -33.873 9.304 NIL 32 C_32    0.000
647 C6 -1.425 -34.067 9.177 NIL 32 C_32    0.000
648 C5 -0.933 -35.125 8.483 NIL 32 C_32    0.000
649 C4 -1.890 -36.017 7.898 NIL 32 C_32    0.000
650 N4 -1.480 -37.070 7.207 NIL 32 C_32    0.000
651 N3 -3.207 -35.817 8.029 NIL 32 C_32    0.000
652 C2 -3.678 -34.752 8.728 NIL 32 C_32    0.000
653 O2 -4.888 -34.533 8.870 NIL 32 C_32    0.000
654 C3* -2.595 -30.805 11.286 NIL 32 C_32    0.000
655 C2* -2.460 -32.327 11.277 NIL 32 C_32    0.000
656 O3* -3.792 -30.443 11.962 NIL 32 C_32    0.000
657 P -11.716 -39.925 3.622 NIL 33 G_33    0.000
658 O1P -13.125 -40.365 3.734 NIL 33 G_33    0.000
659 O2P -11.063 -40.076 2.303 NIL 33 G_33    0.000
660 O5* -11.702 -38.410 4.137 NIL 33 G_33    0.000
661 C5* -11.803 -38.153 5.549 NIL 33 G_33    0.000
662 C4* -11.769 -36.658 5.807 NIL 33 G_33    0.000
663 O4* -10.386 -36.314 5.840 NIL 33 G_33    0.000
664 C1* -10.001 -35.530 4.730 NIL 33 G_33    0.000
665 N9 -8.759 -36.158 4.200 NIL 33 G_33    0.000
666 C8 -8.619 -37.258 3.382 NIL 33 G_33    0.000
667 N7 -7.375 -37.556 3.096 NIL 33 G_33    0.000
668 C5 -6.638 -36.584 3.771 NIL 33 G_33    0.000
669 C6 -5.235 -36.386 3.841 NIL 33 G_33    0.000
670 O6 -4.338 -37.037 3.312 NIL 33 G_33    0.000
671 N1 -4.914 -35.279 4.639 NIL 33 G_33    0.000
672 C2 -5.828 -34.470 5.285 NIL 33 G_33    0.000
673 N2 -5.319 -33.463 5.998 NIL 33 G_33    0.000
674 N3 -7.144 -34.657 5.218 NIL 33 G_33    0.000
675 C4 -7.474 -35.726 4.448 NIL 33 G_33    0.000
676 C3* -12.360 -35.780 4.705 NIL 33 G_33    0.000
677 C2* -11.176 -35.582 3.759 NIL 33 G_33    0.000
678 O3* -12.781 -34.517 5.202 NIL 33 G_33    0.000
679 P 4.057 -32.707 4.030 NIL 34 C_34    0.000
680 O1P 5.297 -31.913 4.180 NIL 34 C_34    0.000
681 O2P 4.176 -34.178 4.142 NIL 34 C_34    0.000
682 O5* 3.030 -32.098 5.095 NIL 34 C_34    0.000
683 C5* 2.405 -30.833 4.816 NIL 34 C_34    0.000
684 C4* 1.476 -30.451 5.953 NIL 34 C_34    0.000
685 O4* 0.249 -31.122 5.677 NIL 34 C_34    0.000
686 C1* -0.015 -32.159 6.599 NIL 34 C_34    0.000
687 N1 -0.393 -33.345 5.780 NIL 34 C_34    0.000
688 C6 0.556 -34.121 5.191 NIL 34 C_34    0.000
689 C5 0.212 -35.201 4.444 NIL 34 C_34    0.000
690 C4 -1.188 -35.477 4.310 NIL 34 C_34    0.000
691 N4 -1.595 -36.515 3.596 NIL 34 C_34    0.000
692 N3 -2.114 -34.706 4.895 NIL 34 C_34    0.000
693 C2 -1.748 -33.630 5.638 NIL 34 C_34    0.000
694 O2 -2.574 -32.894 6.193 NIL 34 C_34    0.000
695 C3* 1.885 -30.947 7.340 NIL 34 C_34    0.000
696 C2* 1.275 -32.347 7.392 NIL 34 C_34    0.000
697 O3* 1.324 -30.152 8.375 NIL 34 C_34    0.000
698 P -12.483 -33.888 4.174 NIL 35 G_35    0.000
699 O1P -13.790 -33.636 4.821 NIL 35 G_35    0.000
700 O2P -12.489 -34.175 2.723 NIL 35 G_35    0.000
701 O5* -11.577 -32.620 4.539 NIL 35 G_35    0.000
702 C5* -11.042 -32.505 5.869 NIL 35 G_35    0.000
703 C4* -10.220 -31.236 5.990 NIL 35 G_35    0.000
704 O4* -8.927 -31.577 5.495 NIL 35 G_35    0.000
705 C1* -8.637 -30.941 4.267 NIL 35 G_35    0.000
706 N9 -8.114 -32.008 3.370 NIL 35 G_35    0.000
707 C8 -8.806 -32.949 2.639 NIL 35 G_35    0.000
708 N7 -8.040 -33.754 1.944 NIL 35 G_35    0.000
709 C5 -6.748 -33.316 2.235 NIL 35 G_35    0.000
710 C6 -5.495 -33.799 1.777 NIL 35 G_35    0.000
711 O6 -5.262 -34.727 1.008 NIL 35 G_35    0.000
712 N1 -4.434 -33.063 2.323 NIL 35 G_35    0.000
713 C2 -4.566 -32.001 3.196 NIL 35 G_35    0.000
714 N2 -3.429 -31.431 3.602 NIL 35 G_35    0.000
715 N3 -5.743 -31.549 3.624 NIL 35 G_35    0.000
716 C4 -6.783 -32.251 3.105 NIL 35 G_35    0.000
717 C3* -10.673 -30.066 5.116 NIL 35 G_35    0.000
718 C2* -9.954 -30.333 3.794 NIL 35 G_35    0.000
719 O3* -10.244 -28.816 5.640 NIL 35 G_35    0.000
720 P 3.821 -34.884 -1.675 NIL 36 C_36    0.000
721 O1P 5.251 -34.776 -2.041 NIL 36 C_36    0.000
722 O2P 3.266 -36.245 -1.508 NIL 36 C_36    0.000
723 O5* 3.651 -33.993 -0.358 NIL 36 C_36    0.000
724 C5* 3.643 -32.560 -0.482 NIL 36 C_36    0.000
725 C4* 3.471 -31.922 0.884 NIL 36 C_36    0.000
726 O4* 2.065 -31.913 1.120 NIL 36 C_36    0.000
727 C1* 1.688 -32.807 2.147 NIL 36 C_36    0.000
728 N1 0.536 -33.582 1.608 NIL 36 C_36    0.000
729 C6 0.731 -34.637 0.773 NIL 36 C_36    0.000
730 C5 -0.318 -35.344 0.280 NIL 36 C_36    0.000
731 C4 -1.628 -34.924 0.683 NIL 36 C_36    0.000
732 N4 -2.697 -35.569 0.241 NIL 36 C_36    0.000
733 N3 -1.809 -33.884 1.506 NIL 36 C_36    0.000
734 C2 -0.745 -33.190 1.987 NIL 36 C_36    0.000
735 O2 -0.872 -32.223 2.749 NIL 36 C_36    0.000
736 C3* 4.056 -32.703 2.060 NIL 36 C_36    0.000
737 C2* 2.921 -33.657 2.430 NIL 36 C_36    0.000
738 O3* 4.341 -31.860 3.168 NIL 36 C_36    0.000
739 P -10.068 -28.286 4.531 NIL 37 G_37    0.000
740 O1P -10.780 -27.532 5.587 NIL 37 G_37    0.000
741 O2P -10.718 -28.372 3.205 NIL 37 G_37    0.000
742 O5* -8.610 -27.631 4.451 NIL 37 G_37    0.000
743 C5* -7.655 -27.927 5.485 NIL 37 G_37    0.000
744 C4* -6.350 -27.204 5.209 NIL 37 G_37    0.000
745 O4* -5.638 -28.047 4.305 NIL 37 G_37    0.000
746 C1* -5.536 -27.484 3.014 NIL 37 G_37    0.000
747 N9 -5.930 -28.564 2.067 NIL 37 G_37    0.000
748 C8 -7.190 -28.989 1.706 NIL 37 G_37    0.000
749 N7 -7.194 -29.974 0.841 NIL 37 G_37    0.000
750 C5 -5.840 -30.219 0.612 NIL 37 G_37    0.000
751 C6 -5.214 -31.172 -0.232 NIL 37 G_37    0.000
752 O6 -5.733 -32.009 -0.965 NIL 37 G_37    0.000
753 N1 -3.817 -31.077 -0.162 NIL 37 G_37    0.000
754 C2 -3.117 -30.180 0.621 NIL 37 G_37    0.000
755 N2 -1.786 -30.250 0.545 NIL 37 G_37    0.000
756 N3 -3.706 -29.286 1.412 NIL 37 G_37    0.000
757 C4 -5.061 -29.363 1.356 NIL 37 G_37    0.000
758 C3* -6.473 -25.868 4.477 NIL 37 G_37    0.000
759 C2* -6.482 -26.287 3.007 NIL 37 G_37    0.000
760 O3* -5.354 -25.026 4.718 NIL 37 G_37    0.000
761 P 0.600 -36.049 -6.736 NIL 38 C_38    0.000
762 O1P 1.680 -36.575 -7.602 NIL 38 C_38    0.000
763 O2P -0.431 -37.008 -6.282 NIL 38 C_38    0.000
764 O5* 1.346 -35.335 -5.514 NIL 38 C_38    0.000
765 C5* 1.970 -34.057 -5.729 NIL 38 C_38    0.000
766 C4* 2.611 -33.569 -4.443 NIL 38 C_38    0.000
767 O4* 1.561 -32.937 -3.716 NIL 38 C_38    0.000
768 C1* 1.196 -33.664 -2.560 NIL 38 C_38    0.000
769 N1 -0.291 -33.753 -2.589 NIL 38 C_38    0.000
770 C6 -0.923 -34.677 -3.360 NIL 38 C_38    0.000
771 C5 -2.278 -34.758 -3.387 NIL 38 C_38    0.000
772 C4 -2.999 -33.828 -2.568 NIL 38 C_38    0.000
773 N4 -4.323 -33.851 -2.546 NIL 38 C_38    0.000
774 N3 -2.366 -32.922 -1.813 NIL 38 C_38    0.000
775 C2 -1.010 -32.858 -1.801 NIL 38 C_38    0.000
776 O2 -0.390 -32.034 -1.116 NIL 38 C_38    0.000
777 C3* 3.131 -34.659 -3.506 NIL 38 C_38    0.000
778 C2* 1.893 -35.015 -2.682 NIL 38 C_38    0.000
779 O3* 4.147 -34.173 -2.640 NIL 38 C_38    0.000
780 P -5.351 -24.517 3.586 NIL 39 G_39    0.000
781 O1P -5.202 -23.642 4.771 NIL 39 G_39    0.000
782 O2P -6.385 -24.143 2.595 NIL 39 G_39    0.000
783 O5* -3.892 -24.606 2.937 NIL 39 G_39    0.000
784 C5* -2.895 -25.425 3.574 NIL 39 G_39    0.000
785 C4* -1.596 -25.362 2.792 NIL 39 G_39    0.000
786 O4* -1.734 -26.331 1.755 NIL 39 G_39    0.000
787 C1* -1.841 -25.738 0.477 NIL 39 G_39    0.000
788 N9 -3.001 -26.400 -0.182 NIL 39 G_39    0.000
789 C8 -4.347 -26.150 -0.031 NIL 39 G_39    0.000
790 N7 -5.118 -26.917 -0.763 NIL 39 G_39    0.000
791 C5 -4.219 -27.733 -1.448 NIL 39 G_39    0.000
792 C6 -4.457 -28.766 -2.391 NIL 39 G_39    0.000
793 O6 -5.529 -29.180 -2.824 NIL 39 G_39    0.000
794 N1 -3.257 -29.337 -2.838 NIL 39 G_39    0.000
795 C2 -1.993 -28.960 -2.428 NIL 39 G_39    0.000
796 N2 -0.976 -29.629 -2.976 NIL 39 G_39    0.000
797 N3 -1.771 -27.990 -1.544 NIL 39 G_39    0.000
798 C4 -2.924 -27.425 -1.100 NIL 39 G_39    0.000
799 C3* -1.324 -24.048 2.060 NIL 39 G_39    0.000
800 C2* -2.045 -24.248 0.728 NIL 39 G_39    0.000
801 O3* 0.063 -23.852 1.819 NIL 39 G_39    0.000
802 P -4.334 -35.016 -10.190 NIL 40 C_40    0.000
803 O1P -4.012 -35.881 -11.347 NIL 40 C_40    0.000
804 O2P -5.460 -35.433 -9.325 NIL 40 C_40    0.000
805 O5* -2.965 -34.869 -9.375 NIL 40 C_40    0.000
806 C5* -1.934 -34.010 -9.893 NIL 40 C_40    0.000
807 C4* -0.734 -34.023 -8.965 NIL 40 C_40    0.000
808 O4* -1.030 -33.063 -7.954 NIL 40 C_40    0.000
809 C1* -1.261 -33.662 -6.696 NIL 40 C_40    0.000
810 N1 -2.516 -33.049 -6.178 NIL 40 C_40    0.000
811 C6 -3.734 -33.483 -6.599 NIL 40 C_40    0.000
812 C5 -4.878 -32.924 -6.127 NIL 40 C_40    0.000
813 C4 -4.736 -31.865 -5.173 NIL 40 C_40    0.000
814 N4 -5.810 -31.275 -4.671 NIL 40 C_40    0.000
815 N3 -3.532 -31.446 -4.765 NIL 40 C_40    0.000
816 C2 -2.400 -32.018 -5.249 NIL 40 C_40    0.000
817 O2 -1.270 -31.657 -4.897 NIL 40 C_40    0.000
818 C3* -0.496 -35.327 -8.203 NIL 40 C_40    0.000
819 C2* -1.376 -35.159 -6.965 NIL 40 C_40    0.000
820 O3* 0.860 -35.467 -7.801 NIL 40 C_40    0.000
821 P -0.093 -23.279 0.729 NIL 41 G_41    0.000
822 O1P 0.856 -22.712 1.714 NIL 41 G_41    0.000
823 O2P -1.102 -22.361 0.155 NIL 41 G_41    0.000
824 O5* 0.817 -23.960 -0.396 NIL 41 G_41    0.000
825 C5* 1.463 -25.212 -0.107 NIL 41 G_41    0.000
826 C4* 2.269 -25.670 -1.308 NIL 41 G_41    0.000
827 O4* 1.336 -26.342 -2.151 NIL 41 G_41    0.000
828 C1* 1.080 -25.628 -3.343 NIL 41 G_41    0.000
829 N9 -0.402 -25.599 -3.488 NIL 41 G_41    0.000
830 C8 -1.321 -24.773 -2.879 NIL 41 G_41    0.000
831 N7 -2.563 -25.009 -3.225 NIL 41 G_41    0.000
832 C5 -2.460 -26.066 -4.128 NIL 41 G_41    0.000
833 C6 -3.471 -26.759 -4.844 NIL 41 G_41    0.000
834 O6 -4.685 -26.578 -4.829 NIL 41 G_41    0.000
835 N1 -2.926 -27.766 -5.653 NIL 41 G_41    0.000
836 C2 -1.582 -28.064 -5.757 NIL 41 G_41    0.000
837 N2 -1.266 -29.062 -6.585 NIL 41 G_41    0.000
838 N3 -0.635 -27.414 -5.085 NIL 41 G_41    0.000
839 C4 -1.145 -26.434 -4.296 NIL 41 G_41    0.000
840 C3* 2.850 -24.558 -2.181 NIL 41 G_41    0.000
841 C2* 1.704 -24.251 -3.144 NIL 41 G_41    0.000
842 O3* 3.979 -25.001 -2.921 NIL 41 G_41    0.000
843 P -9.055 -31.437 -11.687 NIL 42 C_42    0.000
844 O1P -9.609 -32.216 -12.817 NIL 42 C_42    0.000
845 O2P -9.859 -31.379 -10.446 NIL 42 C_42    0.000
846 O5* -7.592 -32.033 -11.436 NIL 42 C_42    0.000
847 C5* -6.535 -31.696 -12.353 NIL 42 C_42    0.000
848 C4* -5.243 -32.367 -11.924 NIL 42 C_42    0.000
849 O4* -4.676 -31.498 -10.946 NIL 42 C_42    0.000
850 C1* -4.703 -32.060 -9.650 NIL 42 C_42    0.000
851 N1 -5.248 -30.998 -8.758 NIL 42 C_42    0.000
852 C6 -6.586 -30.769 -8.677 NIL 42 C_42    0.000
853 C5 -7.083 -29.801 -7.865 NIL 42 C_42    0.000
854 C4 -6.133 -29.043 -7.106 NIL 42 C_42    0.000
855 N4 -6.548 -28.083 -6.293 NIL 42 C_42    0.000
856 N3 -4.818 -29.277 -7.193 NIL 42 C_42    0.000
857 C2 -4.342 -30.249 -8.011 NIL 42 C_42    0.000
858 O2 -3.134 -30.495 -8.119 NIL 42 C_42    0.000
859 C3* -5.397 -33.708 -11.208 NIL 42 C_42    0.000
860 C2* -5.595 -33.293 -9.750 NIL 42 C_42    0.000
861 O3* -4.225 -34.504 -11.315 NIL 42 C_42    0.000
862 P 3.740 -24.302 -3.919 NIL 43 G_43    0.000
863 O1P 5.121 -24.353 -3.388 NIL 43 G_43    0.000
864 O2P 3.153 -22.964 -4.152 NIL 43 G_43    0.000
865 O5* 3.761 -25.196 -5.245 NIL 43 G_43    0.000
866 C5* 3.795 -26.629 -5.120 NIL 43 G_43    0.000
867 C4* 3.810 -27.270 -6.495 NIL 43 G_43    0.000
868 O4* 2.442 -27.334 -6.893 NIL 43 G_43    0.000
869 C1* 2.152 -26.454 -7.959 NIL 43 G_43    0.000
870 N9 0.915 -25.726 -7.560 NIL 43 G_43    0.000
871 C8 0.774 -24.643 -6.720 NIL 43 G_43    0.000
872 N7 -0.464 -24.238 -6.575 NIL 43 G_43    0.000
873 C5 -1.196 -25.113 -7.376 NIL 43 G_43    0.000
874 C6 -2.591 -25.174 -7.625 NIL 43 G_43    0.000
875 O6 -3.484 -24.456 -7.184 NIL 43 G_43    0.000
876 N1 -2.909 -26.221 -8.502 NIL 43 G_43    0.000
877 C2 -1.998 -27.094 -9.064 NIL 43 G_43    0.000
878 N2 -2.503 -28.025 -9.876 NIL 43 G_43    0.000
879 N3 -0.689 -27.036 -8.829 NIL 43 G_43    0.000
880 C4 -0.363 -26.026 -7.981 NIL 43 G_43    0.000
881 C3* 4.496 -26.463 -7.596 NIL 43 G_43    0.000
882 C2* 3.375 -25.554 -8.098 NIL 43 G_43    0.000
883 O3* 4.941 -27.291 -8.662 NIL 43 G_43    0.000
884 P -11.718 -25.937 -11.627 NIL 44 C_44    0.000
885 O1P -12.930 -26.239 -12.421 NIL 44 C_44    0.000
886 O2P -11.905 -25.654 -10.187 NIL 44 C_44    0.000
887 O5* -10.726 -27.166 -11.881 NIL 44 C_44    0.000
888 C5* -10.035 -27.256 -13.139 NIL 44 C_44    0.000
889 C4* -9.154 -28.492 -13.160 NIL 44 C_44    0.000
890 O4* -7.943 -28.100 -12.519 NIL 44 C_44    0.000
891 C1* -7.773 -28.727 -11.264 NIL 44 C_44    0.000
892 N1 -7.401 -27.641 -10.315 NIL 44 C_44    0.000
893 C6 -8.347 -26.830 -9.772 NIL 44 C_44    0.000
894 C5 -8.008 -25.840 -8.907 NIL 44 C_44    0.000
895 C4 -6.616 -25.697 -8.599 NIL 44 C_44    0.000
896 N4 -6.214 -24.752 -7.762 NIL 44 C_44    0.000
897 N3 -5.692 -26.502 -9.139 NIL 44 C_44    0.000
898 C2 -6.053 -27.486 -10.003 NIL 44 C_44    0.000
899 O2 -5.228 -28.248 -10.523 NIL 44 C_44    0.000
900 C3* -9.658 -29.681 -12.343 NIL 44 C_44    0.000
901 C2* -9.110 -29.388 -10.947 NIL 44 C_44    0.000
902 O3* -9.122 -30.911 -12.810 NIL 44 C_44    0.000
903 P 4.726 -26.454 -9.552 NIL 45 G_45    0.000
904 O1P 6.006 -27.197 -9.555 NIL 45 G_45    0.000
905 O2P 4.799 -24.979 -9.654 NIL 45 G_45    0.000
906 O5* 3.855 -27.101 -10.728 NIL 45 G_45    0.000
907 C5* 3.253 -28.391 -10.521 NIL 45 G_45    0.000
908 C4* 2.480 -28.807 -11.758 NIL 45 G_45    0.000
909 O4* 1.203 -28.187 -11.629 NIL 45 G_45    0.000
910 C1* 1.007 -27.158 -12.578 NIL 45 G_45    0.000
911 N9 0.489 -25.991 -11.811 NIL 45 G_45    0.000
912 C8 1.180 -25.068 -11.057 NIL 45 G_45    0.000
913 N7 0.420 -24.155 -10.504 NIL 45 G_45    0.000
914 C5 -0.866 -24.496 -10.920 NIL 45 G_45    0.000
915 C6 -2.111 -23.876 -10.642 NIL 45 G_45    0.000
916 O6 -2.340 -22.881 -9.961 NIL 45 G_45    0.000
917 N1 -3.169 -24.551 -11.267 NIL 45 G_45    0.000
918 C2 -3.041 -25.678 -12.056 NIL 45 G_45    0.000
919 N2 -4.173 -26.171 -12.562 NIL 45 G_45    0.000
920 N3 -1.871 -26.258 -12.316 NIL 45 G_45    0.000
921 C4 -0.834 -25.616 -11.719 NIL 45 G_45    0.000
922 C3* 3.028 -28.292 -13.089 NIL 45 G_45    0.000
923 C2* 2.371 -26.917 -13.215 NIL 45 G_45    0.000
924 O3* 2.623 -29.107 -14.181 NIL 45 G_45    0.000
925 P -11.263 -19.875 -11.003 NIL 46 C_46    0.000
926 O1P -12.666 -19.491 -11.280 NIL 46 C_46    0.000
927 O2P -10.775 -19.701 -9.617 NIL 46 C_46    0.000
928 O5* -11.128 -21.387 -11.510 NIL 46 C_46    0.000
929 C5* -11.054 -21.645 -12.923 NIL 46 C_46    0.000
930 C4* -10.930 -23.136 -13.172 NIL 46 C_46    0.000
931 O4* -9.540 -23.424 -13.043 NIL 46 C_46    0.000
932 C1* -9.256 -24.195 -11.893 NIL 46 C_46    0.000
933 N1 -8.110 -23.519 -11.224 NIL 46 C_46    0.000
934 C6 -8.303 -22.428 -10.435 NIL 46 C_46    0.000
935 C5 -7.259 -21.811 -9.825 NIL 46 C_46    0.000
936 C4 -5.957 -22.365 -10.053 NIL 46 C_46    0.000
937 N4 -4.893 -21.814 -9.489 NIL 46 C_46    0.000
938 N3 -5.778 -23.439 -10.831 NIL 46 C_46    0.000
939 C2 -6.836 -24.041 -11.433 NIL 46 C_46    0.000
940 O2 -6.710 -25.035 -12.160 NIL 46 C_46    0.000
941 C3* -11.610 -24.040 -12.145 NIL 46 C_46    0.000
942 C2* -10.538 -24.193 -11.067 NIL 46 C_46    0.000
943 O3* -11.919 -25.318 -12.684 NIL 46 C_46    0.000
944 P 2.530 -28.171 -14.990 NIL 47 G_47    0.000
945 O1P 3.215 -29.416 -15.403 NIL 47 G_47    0.000
946 O2P 3.247 -26.897 -15.217 NIL 47 G_47    0.000
947 O5* 1.107 -28.205 -15.722 NIL 47 G_47    0.000
948 C5* 0.086 -29.084 -15.219 NIL 47 G_47    0.000
949 C4* -1.171 -28.953 -16.058 NIL 47 G_47    0.000
950 O4* -1.867 -27.831 -15.520 NIL 47 G_47    0.000
951 C1* -1.875 -26.730 -16.405 NIL 47 G_47    0.000
952 N9 -1.475 -25.550 -15.589 NIL 47 G_47    0.000
953 C8 -0.216 -25.142 -15.205 NIL 47 G_47    0.000
954 N7 -0.207 -24.050 -14.482 NIL 47 G_47    0.000
955 C5 -1.555 -23.708 -14.378 NIL 47 G_47    0.000
956 C6 -2.173 -22.618 -13.714 NIL 47 G_47    0.000
957 O6 -1.650 -21.713 -13.070 NIL 47 G_47    0.000
958 N1 -3.567 -22.652 -13.863 NIL 47 G_47    0.000
959 C2 -4.270 -23.614 -14.562 NIL 47 G_47    0.000
960 N2 -5.597 -23.467 -14.586 NIL 47 G_47    0.000
961 N3 -3.688 -24.636 -15.185 NIL 47 G_47    0.000
962 C4 -2.337 -24.618 -15.051 NIL 47 G_47    0.000
963 C3* -0.953 -28.604 -17.530 NIL 47 G_47    0.000
964 C2* -0.881 -27.078 -17.509 NIL 47 G_47    0.000
965 O3* -2.047 -29.012 -18.340 NIL 47 G_47    0.000
966 P -7.823 -14.825 -11.024 NIL 48 C_48    0.000
967 O1P -8.875 -13.807 -10.801 NIL 48 C_48    0.000
968 O2P -6.858 -15.053 -9.925 NIL 48 C_48    0.000
969 O5* -8.603 -16.160 -11.435 NIL 48 C_48    0.000
970 C5* -9.161 -16.262 -12.756 NIL 48 C_48    0.000
971 C4* -9.851 -17.603 -12.926 NIL 48 C_48    0.000
972 O4* -8.816 -18.514 -13.288 NIL 48 C_48    0.000
973 C1* -8.545 -19.452 -12.267 NIL 48 C_48    0.000
974 N1 -7.064 -19.463 -12.108 NIL 48 C_48    0.000
975 C6 -6.429 -18.503 -11.383 NIL 48 C_48    0.000
976 C5 -5.079 -18.512 -11.239 NIL 48 C_48    0.000
977 C4 -4.366 -19.576 -11.883 NIL 48 C_48    0.000
978 N4 -3.047 -19.647 -11.783 NIL 48 C_48    0.000
979 N3 -5.001 -20.516 -12.593 NIL 48 C_48    0.000
980 C2 -6.352 -20.488 -12.726 NIL 48 C_48    0.000
981 O2 -6.974 -21.339 -13.376 NIL 48 C_48    0.000
982 C3* -10.465 -18.199 -11.659 NIL 48 C_48    0.000
983 C2* -9.290 -18.950 -11.035 NIL 48 C_48    0.000
984 O3* -11.506 -19.119 -11.957 NIL 48 C_48    0.000
985 P -1.967 -28.054 -19.126 NIL 49 G_49    0.000
986 O1P -2.144 -29.420 -19.668 NIL 49 G_49    0.000
987 O2P -0.866 -27.240 -19.688 NIL 49 G_49    0.000
988 O5* -3.392 -27.344 -19.288 NIL 49 G_49    0.000
989 C5* -4.455 -27.701 -18.388 NIL 49 G_49    0.000
990 C4* -5.706 -26.911 -18.723 NIL 49 G_49    0.000
991 O4* -5.552 -25.662 -18.051 NIL 49 G_49    0.000
992 C1* -5.351 -24.591 -18.950 NIL 49 G_49    0.000
993 N9 -4.185 -23.829 -18.421 NIL 49 G_49    0.000
994 C8 -2.840 -24.096 -18.550 NIL 49 G_49    0.000
995 N7 -2.063 -23.221 -17.959 NIL 49 G_49    0.000
996 C5 -2.957 -22.309 -17.399 NIL 49 G_49    0.000
997 C6 -2.711 -21.139 -16.636 NIL 49 G_49    0.000
998 O6 -1.635 -20.657 -16.292 NIL 49 G_49    0.000
999 N1 -3.907 -20.507 -16.268 NIL 49 G_49    0.000
1000 C2 -5.175 -20.949 -16.594 NIL 49 G_49    0.000
1001 N2 -6.188 -20.203 -16.147 NIL 49 G_49    0.000
1002 N3 -5.404 -22.047 -17.310 NIL 49 G_49    0.000
1003 C4 -4.255 -22.672 -17.676 NIL 49 G_49    0.000
1004 C3* -5.883 -26.539 -20.195 NIL 49 G_49    0.000
1005 C2* -5.099 -25.232 -20.310 NIL 49 G_49    0.000
1006 O3* -7.245 -26.300 -20.522 NIL 49 G_49    0.000
1007 P -2.669 -11.973 -12.651 NIL 50 C_50    0.000
1008 O1P -2.963 -10.616 -12.137 NIL 50 C_50    0.000
1009 O2P -1.610 -12.743 -11.963 NIL 50 C_50    0.000
1010 O5* -4.074 -12.740 -12.655 NIL 50 C_50    0.000
1011 C5* -5.038 -12.423 -13.674 NIL 50 C_50    0.000
1012 C4* -6.287 -13.265 -13.485 NIL 50 C_50    0.000
1013 O4* -6.006 -14.504 -14.131 NIL 50 C_50    0.000
1014 C1* -5.869 -15.569 -13.213 NIL 50 C_50    0.000
1015 N1 -4.619 -16.281 -13.600 NIL 50 C_50    0.000
1016 C6 -3.399 -15.812 -13.225 NIL 50 C_50    0.000
1017 C5 -2.260 -16.461 -13.579 NIL 50 C_50    0.000
1018 C4 -2.410 -17.654 -14.359 NIL 50 C_50    0.000
1019 N4 -1.341 -18.338 -14.739 NIL 50 C_50    0.000
1020 N3 -3.616 -18.107 -14.723 NIL 50 C_50    0.000
1021 C2 -4.743 -17.443 -14.359 NIL 50 C_50    0.000
1022 O2 -5.875 -17.830 -14.676 NIL 50 C_50    0.000
1023 C3* -6.619 -13.646 -12.043 NIL 50 C_50    0.000
1024 C2* -5.802 -14.921 -11.834 NIL 50 C_50    0.000
1025 O3* -7.999 -13.940 -11.877 NIL 50 C_50    0.000
1026 P -7.006 -25.407 -21.350 NIL 51 G_51    0.000
1027 O1P -7.983 -26.466 -21.692 NIL 51 G_51    0.000
1028 O2P -5.930 -25.138 -22.329 NIL 51 G_51    0.000
1029 O5* -7.881 -24.106 -21.036 NIL 51 G_51    0.000
1030 C5* -8.594 -24.029 -19.789 NIL 51 G_51    0.000
1031 C4* -9.351 -22.717 -19.704 NIL 51 G_51    0.000
1032 O4* -8.403 -21.766 -19.226 NIL 51 G_51    0.000
1033 C1* -8.053 -20.815 -20.211 NIL 51 G_51    0.000
1034 N9 -6.565 -20.745 -20.196 NIL 51 G_51    0.000
1035 C8 -5.647 -21.588 -20.783 NIL 51 G_51    0.000
1036 N7 -4.399 -21.243 -20.578 NIL 51 G_51    0.000
1037 C5 -4.496 -20.091 -19.800 NIL 51 G_51    0.000
1038 C6 -3.477 -19.261 -19.264 NIL 51 G_51    0.000
1039 O6 -2.259 -19.373 -19.368 NIL 51 G_51    0.000
1040 N1 -4.019 -18.193 -18.534 NIL 51 G_51    0.000
1041 C2 -5.367 -17.959 -18.346 NIL 51 G_51    0.000
1042 N2 -5.679 -16.885 -17.618 NIL 51 G_51    0.000
1043 N3 -6.322 -18.738 -18.850 NIL 51 G_51    0.000
1044 C4 -5.814 -19.778 -19.561 NIL 51 G_51    0.000
1045 C3* -9.837 -22.144 -21.035 NIL 51 G_51    0.000
1046 C2* -8.628 -21.344 -21.520 NIL 51 G_51    0.000
1047 O3* -10.942 -21.266 -20.863 NIL 51 G_51    0.000
1048 P 2.271 -11.667 -16.235 NIL 52 C_52    0.000
1049 O1P 2.852 -10.396 -15.748 NIL 52 C_52    0.000
1050 O2P 3.008 -12.912 -15.923 NIL 52 C_52    0.000
1051 O5* 0.773 -11.691 -15.674 NIL 52 C_52    0.000
1052 C5* -0.217 -10.852 -16.295 NIL 52 C_52    0.000
1053 C4* -1.557 -11.035 -15.607 NIL 52 C_52    0.000
1054 O4* -2.140 -12.183 -16.220 NIL 52 C_52    0.000
1055 C1* -2.208 -13.286 -15.340 NIL 52 C_52    0.000
1056 N1 -1.668 -14.447 -16.101 NIL 52 C_52    0.000
1057 C6 -0.328 -14.641 -16.228 NIL 52 C_52    0.000
1058 C5 0.163 -15.699 -16.922 NIL 52 C_52    0.000
1059 C4 -0.793 -16.591 -17.507 NIL 52 C_52    0.000
1060 N4 -0.384 -17.644 -18.198 NIL 52 C_52    0.000
1061 N3 -2.110 -16.391 -17.376 NIL 52 C_52    0.000
1062 C2 -2.582 -15.326 -16.678 NIL 52 C_52    0.000
1063 O2 -3.792 -15.108 -16.535 NIL 52 C_52    0.000
1064 C3* -1.499 -11.379 -14.119 NIL 52 C_52    0.000
1065 C2* -1.364 -12.901 -14.129 NIL 52 C_52    0.000
1066 O3* -2.696 -11.018 -13.444 NIL 52 C_52    0.000
1067 P -10.620 -20.499 -21.784 NIL 53 G_53    0.000
1068 O1P -12.028 -20.939 -21.671 NIL 53 G_53    0.000
1069 O2P -9.966 -20.650 -23.103 NIL 53 G_53    0.000
1070 O5* -10.605 -18.984 -21.268 NIL 53 G_53    0.000
1071 C5* -10.707 -18.727 -19.857 NIL 53 G_53    0.000
1072 C4* -10.673 -17.232 -19.598 NIL 53 G_53    0.000
1073 O4* -9.289 -16.888 -19.565 NIL 53 G_53    0.000
1074 C1* -8.905 -16.104 -20.676 NIL 53 G_53    0.000
1075 N9 -7.662 -16.732 -21.206 NIL 53 G_53    0.000
1076 C8 -7.523 -17.832 -22.023 NIL 53 G_53    0.000
1077 N7 -6.279 -18.130 -22.309 NIL 53 G_53    0.000
1078 C5 -5.541 -17.158 -21.634 NIL 53 G_53    0.000
1079 C6 -4.138 -16.960 -21.564 NIL 53 G_53    0.000
1080 O6 -3.242 -17.611 -22.094 NIL 53 G_53    0.000
1081 N1 -3.817 -15.853 -20.766 NIL 53 G_53    0.000
1082 C2 -4.732 -15.044 -20.121 NIL 53 G_53    0.000
1083 N2 -4.222 -14.037 -19.408 NIL 53 G_53    0.000
1084 N3 -6.048 -15.231 -20.187 NIL 53 G_53    0.000
1085 C4 -6.377 -16.300 -20.957 NIL 53 G_53    0.000
1086 C3* -11.264 -16.354 -20.700 NIL 53 G_53    0.000
1087 C2* -10.080 -16.156 -21.646 NIL 53 G_53    0.000
1088 O3* -11.685 -15.091 -20.203 NIL 53 G_53    0.000
1089 P 5.153 -13.281 -21.376 NIL 54 C_54    0.000
1090 O1P 6.393 -12.487 -21.225 NIL 54 C_54    0.000
1091 O2P 5.273 -14.752 -21.263 NIL 54 C_54    0.000
1092 O5* 4.126 -12.672 -20.311 NIL 54 C_54    0.000
1093 C5* 3.501 -11.407 -20.589 NIL 54 C_54    0.000
1094 C4* 2.572 -11.025 -19.452 NIL 54 C_54    0.000
1095 O4* 1.345 -11.696 -19.728 NIL 54 C_54    0.000
1096 C1* 1.081 -12.733 -18.806 NIL 54 C_54    0.000
1097 N1 0.704 -13.919 -19.625 NIL 54 C_54    0.000
1098 C6 1.652 -14.695 -20.215 NIL 54 C_54    0.000
1099 C5 1.308 -15.775 -20.962 NIL 54 C_54    0.000
1100 C4 -0.092 -16.051 -21.095 NIL 54 C_54    0.000
1101 N4 -0.499 -17.090 -21.810 NIL 54 C_54    0.000
1102 N3 -1.017 -15.281 -20.510 NIL 54 C_54    0.000
1103 C2 -0.652 -14.204 -19.767 NIL 54 C_54    0.000
1104 O2 -1.478 -13.469 -19.213 NIL 54 C_54    0.000
1105 C3* 2.982 -11.521 -18.066 NIL 54 C_54    0.000
1106 C2* 2.371 -12.922 -18.014 NIL 54 C_54    0.000
1107 O3* 2.421 -10.726 -17.030 NIL 54 C_54    0.000
1108 P -11.386 -14.462 -21.231 NIL 55 G_55    0.000
1109 O1P -12.694 -14.210 -20.585 NIL 55 G_55    0.000
1110 O2P -11.392 -14.749 -22.683 NIL 55 G_55    0.000
1111 O5* -10.481 -13.194 -20.866 NIL 55 G_55    0.000
1112 C5* -9.945 -13.079 -19.536 NIL 55 G_55    0.000
1113 C4* -9.123 -11.810 -19.416 NIL 55 G_55    0.000
1114 O4* -7.831 -12.151 -19.910 NIL 55 G_55    0.000
1115 C1* -7.541 -11.515 -21.138 NIL 55 G_55    0.000
1116 N9 -7.017 -12.582 -22.035 NIL 55 G_55    0.000
1117 C8 -7.709 -13.523 -22.766 NIL 55 G_55    0.000
1118 N7 -6.943 -14.328 -23.461 NIL 55 G_55    0.000
1119 C5 -5.652 -13.890 -23.170 NIL 55 G_55    0.000
1120 C6 -4.399 -14.373 -23.628 NIL 55 G_55    0.000
1121 O6 -4.166 -15.301 -24.398 NIL 55 G_55    0.000
1122 N1 -3.337 -13.637 -23.082 NIL 55 G_55    0.000
1123 C2 -3.470 -12.575 -22.209 NIL 55 G_55    0.000
1124 N2 -2.333 -12.005 -21.804 NIL 55 G_55    0.000
1125 N3 -4.646 -12.123 -21.781 NIL 55 G_55    0.000
1126 C4 -5.687 -12.825 -22.301 NIL 55 G_55    0.000
1127 C3* -9.576 -10.640 -20.289 NIL 55 G_55    0.000
1128 C2* -8.858 -10.907 -21.611 NIL 55 G_55    0.000
1129 O3* -9.148 -9.390 -19.766 NIL 55 G_55    0.000
1130 P 4.918 -15.458 -27.081 NIL 56 C_56    0.000
1131 O1P 6.348 -15.350 -27.447 NIL 56 C_56    0.000
1132 O2P 4.362 -16.819 -26.914 NIL 56 C_56    0.000
1133 O5* 4.748 -14.567 -25.763 NIL 56 C_56    0.000
1134 C5* 4.740 -13.134 -25.887 NIL 56 C_56    0.000
1135 C4* 4.568 -12.496 -24.521 NIL 56 C_56    0.000
1136 O4* 3.162 -12.487 -24.285 NIL 56 C_56    0.000
1137 C1* 2.784 -13.381 -23.258 NIL 56 C_56    0.000
1138 N1 1.632 -14.156 -23.797 NIL 56 C_56    0.000
1139 C6 1.827 -15.212 -24.633 NIL 56 C_56    0.000
1140 C5 0.778 -15.918 -25.125 NIL 56 C_56    0.000
1141 C4 -0.532 -15.499 -24.722 NIL 56 C_56    0.000
1142 N4 -1.601 -16.143 -25.164 NIL 56 C_56    0.000
1143 N3 -0.712 -14.458 -23.899 NIL 56 C_56    0.000
1144 C2 0.351 -13.764 -23.418 NIL 56 C_56    0.000
1145 O2 0.224 -12.797 -22.657 NIL 56 C_56    0.000
1146 C3* 5.153 -13.277 -23.345 NIL 56 C_56    0.000
1147 C2* 4.018 -14.232 -22.975 NIL 56 C_56    0.000
1148 O3* 5.437 -12.434 -22.237 NIL 56 C_56    0.000
1149 P -8.971 -8.860 -20.874 NIL 57 G_57    0.000
1150 O1P -9.684 -8.106 -19.818 NIL 57 G_57    0.000
1151 O2P -9.622 -8.946 -22.200 NIL 57 G_57    0.000
1152 O5* -7.514 -8.205 -20.954 NIL 57 G_57    0.000
1153 C5* -6.559 -8.501 -19.920 NIL 57 G_57    0.000
1154 C4* -5.254 -7.778 -20.197 NIL 57 G_57    0.000
1155 O4* -4.542 -8.621 -21.100 NIL 57 G_57    0.000
1156 C1* -4.440 -8.058 -22.392 NIL 57 G_57    0.000
1157 N9 -4.834 -9.138 -23.338 NIL 57 G_57    0.000
1158 C8 -6.094 -9.563 -23.700 NIL 57 G_57    0.000
1159 N7 -6.097 -10.548 -24.565 NIL 57 G_57    0.000
1160 C5 -4.744 -10.793 -24.794 NIL 57 G_57    0.000
1161 C6 -4.118 -11.746 -25.638 NIL 57 G_57    0.000
1162 O6 -4.637 -12.583 -26.371 NIL 57 G_57    0.000
1163 N1 -2.721 -11.651 -25.568 NIL 57 G_57    0.000
1164 C2 -2.021 -10.754 -24.785 NIL 57 G_57    0.000
1165 N2 -0.690 -10.824 -24.860 NIL 57 G_57    0.000
1166 N3 -2.610 -9.860 -23.993 NIL 57 G_57    0.000
1167 C4 -3.965 -9.938 -24.049 NIL 57 G_57    0.000
1168 C3* -5.377 -6.442 -20.929 NIL 57 G_57    0.000
1169 C2* -5.386 -6.862 -22.398 NIL 57 G_57    0.000
1170 O3* -4.258 -5.600 -20.687 NIL 57 G_57    0.000
1171 P 1.697 -16.623 -32.141 NIL 58 C_58    0.000
1172 O1P 2.776 -17.149 -33.007 NIL 58 C_58    0.000
1173 O2P 0.665 -17.582 -31.687 NIL 58 C_58    0.000
1174 O5* 2.442 -15.909 -30.919 NIL 58 C_58    0.000
1175 C5* 3.066 -14.631 -31.134 NIL 58 C_58    0.000
1176 C4* 3.707 -14.144 -29.849 NIL 58 C_58    0.000
1177 O4* 2.657 -13.512 -29.121 NIL 58 C_58    0.000
1178 C1* 2.292 -14.238 -27.966 NIL 58 C_58    0.000
1179 N1 0.805 -14.327 -27.994 NIL 58 C_58    0.000
1180 C6 0.173 -15.251 -28.765 NIL 58 C_58    0.000
1181 C5 -1.182 -15.332 -28.792 NIL 58 C_58    0.000
1182 C4 -1.903 -14.402 -27.974 NIL 58 C_58    0.000
1183 N4 -3.227 -14.425 -27.951 NIL 58 C_58    0.000
1184 N3 -1.270 -13.496 -27.218 NIL 58 C_58    0.000
1185 C2 0.086 -13.432 -27.206 NIL 58 C_58    0.000
1186 O2 0.706 -12.608 -26.522 NIL 58 C_58    0.000
1187 C3* 4.227 -15.233 -28.911 NIL 58 C_58    0.000
1188 C2* 2.989 -15.589 -28.088 NIL 58 C_58    0.000
1189 O3* 5.244 -14.748 -28.045 NIL 58 C_58    0.000
1190 P -4.255 -5.091 -21.819 NIL 59 G_59    0.000
1191 O1P -4.105 -4.217 -20.634 NIL 59 G_59    0.000
1192 O2P -5.289 -4.717 -22.810 NIL 59 G_59    0.000
1193 O5* -2.795 -5.180 -22.468 NIL 59 G_59    0.000
1194 C5* -1.798 -5.999 -21.832 NIL 59 G_59    0.000
1195 C4* -0.499 -5.936 -22.613 NIL 59 G_59    0.000
1196 O4* -0.638 -6.905 -23.650 NIL 59 G_59    0.000
1197 C1* -0.744 -6.312 -24.928 NIL 59 G_59    0.000
1198 N9 -1.905 -6.974 -25.587 NIL 59 G_59    0.000
1199 C8 -3.251 -6.724 -25.437 NIL 59 G_59    0.000
1200 N7 -4.021 -7.491 -26.169 NIL 59 G_59    0.000
1201 C5 -3.122 -8.307 -26.853 NIL 59 G_59    0.000
1202 C6 -3.361 -9.340 -27.796 NIL 59 G_59    0.000
1203 O6 -4.432 -9.754 -28.229 NIL 59 G_59    0.000
1204 N1 -2.161 -9.911 -28.244 NIL 59 G_59    0.000
1205 C2 -0.897 -9.534 -27.834 NIL 59 G_59    0.000
1206 N2 0.120 -10.203 -28.381 NIL 59 G_59    0.000
1207 N3 -0.675 -8.564 -26.949 NIL 59 G_59    0.000
1208 C4 -1.827 -7.999 -26.505 NIL 59 G_59    0.000
1209 C3* -0.228 -4.622 -23.345 NIL 59 G_59    0.000
1210 C2* -0.949 -4.822 -24.678 NIL 59 G_59    0.000
1211 O3* 1.159 -4.426 -23.587 NIL 59 G_59    0.000
1212 P -3.238 -15.590 -35.595 NIL 60 C_60    0.000
1213 O1P -2.916 -16.455 -36.752 NIL 60 C_60    0.000
1214 O2P -4.364 -16.007 -34.730 NIL 60 C_60    0.000
1215 O5* -1.869 -15.444 -34.780 NIL 60 C_60    0.000
1216 C5* -0.838 -14.584 -35.298 NIL 60 C_60    0.000
1217 C4* 0.363 -14.597 -34.370 NIL 60 C_60    0.000
1218 O4* 0.066 -13.637 -33.359 NIL 60 C_60    0.000
1219 C1* -0.165 -14.236 -32.101 NIL 60 C_60    0.000
1220 N1 -1.420 -13.623 -31.583 NIL 60 C_60    0.000
1221 C6 -2.638 -14.057 -32.004 NIL 60 C_60    0.000
1222 C5 -3.782 -13.498 -31.533 NIL 60 C_60    0.000
1223 C4 -3.640 -12.439 -30.578 NIL 60 C_60    0.000
1224 N4 -4.714 -11.849 -30.076 NIL 60 C_60    0.000
1225 N3 -2.436 -12.020 -30.170 NIL 60 C_60    0.000
1226 C2 -1.304 -12.592 -30.655 NIL 60 C_60    0.000
1227 O2 -0.173 -12.231 -30.302 NIL 60 C_60    0.000
1228 C3* 0.600 -15.901 -33.609 NIL 60 C_60    0.000
1229 C2* -0.279 -15.733 -32.370 NIL 60 C_60    0.000
1230 O3* 1.956 -16.041 -33.207 NIL 60 C_60    0.000
1231 P 1.003 -3.853 -24.676 NIL 61 G_61    0.000
1232 O1P 1.952 -3.286 -23.692 NIL 61 G_61    0.000
1233 O2P -0.006 -2.935 -25.250 NIL 61 G_61    0.000
1234 O5* 1.914 -4.534 -25.801 NIL 61 G_61    0.000
1235 C5* 2.559 -5.786 -25.512 NIL 61 G_61    0.000
1236 C4* 3.365 -6.244 -26.713 NIL 61 G_61    0.000
1237 O4* 2.433 -6.916 -27.557 NIL 61 G_61    0.000
1238 C1* 2.176 -6.202 -28.749 NIL 61 G_61    0.000
1239 N9 0.694 -6.173 -28.894 NIL 61 G_61    0.000
1240 C8 -0.225 -5.347 -28.284 NIL 61 G_61    0.000
1241 N7 -1.467 -5.584 -28.631 NIL 61 G_61    0.000
1242 C5 -1.364 -6.640 -29.534 NIL 61 G_61    0.000
1243 C6 -2.375 -7.333 -30.249 NIL 61 G_61    0.000
1244 O6 -3.589 -7.153 -30.234 NIL 61 G_61    0.000
1245 N1 -1.830 -8.340 -31.058 NIL 61 G_61    0.000
1246 C2 -0.485 -8.639 -31.162 NIL 61 G_61    0.000
1247 N2 -0.169 -9.636 -31.991 NIL 61 G_61    0.000
1248 N3 0.462 -7.988 -30.490 NIL 61 G_61    0.000
1249 C4 -0.049 -7.008 -29.701 NIL 61 G_61    0.000
1250 C3* 3.946 -5.133 -27.586 NIL 61 G_61    0.000
1251 C2* 2.800 -4.825 -28.549 NIL 61 G_61    0.000
1252 O3* 5.076 -5.575 -28.327 NIL 61 G_61    0.000
1253 P -7.959 -12.011 -37.093 NIL 62 C_62    0.000
1254 O1P -8.512 -12.790 -38.223 NIL 62 C_62    0.000
1255 O2P -8.762 -11.953 -35.851 NIL 62 C_62    0.000
1256 O5* -6.495 -12.607 -36.842 NIL 62 C_62    0.000
1257 C5* -5.439 -12.270 -37.758 NIL 62 C_62    0.000
1258 C4* -4.147 -12.941 -37.329 NIL 62 C_62    0.000
1259 O4* -3.580 -12.072 -36.351 NIL 62 C_62    0.000
1260 C1* -3.607 -12.634 -35.055 NIL 62 C_62    0.000
1261 N1 -4.152 -11.572 -34.163 NIL 62 C_62    0.000
1262 C6 -5.490 -11.343 -34.082 NIL 62 C_62    0.000
1263 C5 -5.986 -10.375 -33.271 NIL 62 C_62    0.000
1264 C4 -5.037 -9.617 -32.511 NIL 62 C_62    0.000
1265 N4 -5.452 -8.657 -31.698 NIL 62 C_62    0.000
1266 N3 -3.722 -9.851 -32.598 NIL 62 C_62    0.000
1267 C2 -3.246 -10.824 -33.417 NIL 62 C_62    0.000
1268 O2 -2.037 -11.069 -33.524 NIL 62 C_62    0.000
1269 C3* -4.301 -14.282 -36.614 NIL 62 C_62    0.000
1270 C2* -4.498 -13.867 -35.156 NIL 62 C_62    0.000
1271 O3* -3.129 -15.078 -36.721 NIL 62 C_62    0.000
1272 P 4.836 -4.876 -29.324 NIL 63 G_63    0.000
1273 O1P 6.217 -4.927 -28.793 NIL 63 G_63    0.000
1274 O2P 4.250 -3.538 -29.558 NIL 63 G_63    0.000
1275 O5* 4.857 -5.770 -30.650 NIL 63 G_63    0.000
1276 C5* 4.892 -7.203 -30.525 NIL 63 G_63    0.000
1277 C4* 4.906 -7.844 -31.900 NIL 63 G_63    0.000
1278 O4* 3.538 -7.909 -32.298 NIL 63 G_63    0.000
1279 C1* 3.248 -7.028 -33.365 NIL 63 G_63    0.000
1280 N9 2.011 -6.301 -32.965 NIL 63 G_63    0.000
1281 C8 1.870 -5.218 -32.125 NIL 63 G_63    0.000
1282 N7 0.632 -4.812 -31.980 NIL 63 G_63    0.000
1283 C5 -0.099 -5.687 -32.781 NIL 63 G_63    0.000
1284 C6 -1.495 -5.748 -33.030 NIL 63 G_63    0.000
1285 O6 -2.387 -5.030 -32.590 NIL 63 G_63    0.000
1286 N1 -1.812 -6.795 -33.907 NIL 63 G_63    0.000
1287 C2 -0.901 -7.668 -34.469 NIL 63 G_63    0.000
1288 N2 -1.407 -8.599 -35.282 NIL 63 G_63    0.000
1289 N3 0.407 -7.610 -34.234 NIL 63 G_63    0.000
1290 C4 0.733 -6.600 -33.386 NIL 63 G_63    0.000
1291 C3* 5.592 -7.037 -33.002 NIL 63 G_63    0.000
1292 C2* 4.471 -6.128 -33.504 NIL 63 G_63    0.000
1293 O3* 6.038 -7.866 -34.067 NIL 63 G_63    0.000
1294 P -10.621 -6.511 -37.033 NIL 64 C_64    0.000
1295 O1P -11.834 -6.813 -37.826 NIL 64 C_64    0.000
1296 O2P -10.808 -6.228 -35.592 NIL 64 C_64    0.000
1297 O5* -9.630 -7.740 -37.286 NIL 64 C_64    0.000
1298 C5* -8.938 -7.830 -38.545 NIL 64 C_64    0.000
1299 C4* -8.058 -9.066 -38.566 NIL 64 C_64    0.000
1300 O4* -6.846 -8.674 -37.924 NIL 64 C_64    0.000
1301 C1* -6.676 -9.301 -36.670 NIL 64 C_64    0.000
1302 N1 -6.304 -8.216 -35.720 NIL 64 C_64    0.000
1303 C6 -7.251 -7.404 -35.177 NIL 64 C_64    0.000
1304 C5 -6.912 -6.414 -34.312 NIL 64 C_64    0.000
1305 C4 -5.519 -6.271 -34.004 NIL 64 C_64    0.000
1306 N4 -5.118 -5.327 -33.168 NIL 64 C_64    0.000
1307 N3 -4.596 -7.076 -34.545 NIL 64 C_64    0.000
1308 C2 -4.956 -8.060 -35.408 NIL 64 C_64    0.000
1309 O2 -4.131 -8.822 -35.928 NIL 64 C_64    0.000
1310 C3* -8.562 -10.255 -37.748 NIL 64 C_64    0.000
1311 C2* -8.014 -9.962 -36.352 NIL 64 C_64    0.000
1312 O3* -8.026 -11.485 -38.215 NIL 64 C_64    0.000
1313 P 5.822 -7.028 -34.958 NIL 65 G_65    0.000
1314 O1P 7.102 -7.772 -34.961 NIL 65 G_65    0.000
1315 O2P 5.895 -5.554 -35.059 NIL 65 G_65    0.000
1316 O5* 4.952 -7.675 -36.134 NIL 65 G_65    0.000
1317 C5* 4.350 -8.965 -35.927 NIL 65 G_65    0.000
1318 C4* 3.576 -9.381 -37.164 NIL 65 G_65    0.000
1319 O4* 2.299 -8.761 -37.034 NIL 65 G_65    0.000
1320 C1* 2.103 -7.733 -37.983 NIL 65 G_65    0.000
1321 N9 1.585 -6.565 -37.216 NIL 65 G_65    0.000
1322 C8 2.276 -5.642 -36.463 NIL 65 G_65    0.000
1323 N7 1.516 -4.729 -35.909 NIL 65 G_65    0.000
1324 C5 0.231 -5.070 -36.326 NIL 65 G_65    0.000
1325 C6 -1.015 -4.450 -36.048 NIL 65 G_65    0.000
1326 O6 -1.244 -3.455 -35.367 NIL 65 G_65    0.000
1327 N1 -2.073 -5.126 -36.673 NIL 65 G_65    0.000
1328 C2 -1.944 -6.252 -37.462 NIL 65 G_65    0.000
1329 N2 -3.077 -6.745 -37.967 NIL 65 G_65    0.000
1330 N3 -0.775 -6.832 -37.721 NIL 65 G_65    0.000
1331 C4 0.262 -6.190 -37.124 NIL 65 G_65    0.000
1332 C3* 4.124 -8.866 -38.494 NIL 65 G_65    0.000
1333 C2* 3.468 -7.491 -38.620 NIL 65 G_65    0.000
1334 O3* 3.720 -9.681 -39.586 NIL 65 G_65    0.000
1335 P -10.167 -0.449 -36.409 NIL 66 C_66    0.000
1336 O1P -11.569 -0.065 -36.686 NIL 66 C_66    0.000
1337 O2P -9.678 -0.275 -35.023 NIL 66 C_66    0.000
1338 O5* -10.032 -1.961 -36.915 NIL 66 C_66    0.000
1339 C5* -9.957 -2.219 -38.328 NIL 66 C_66    0.000
1340 C4* -9.834 -3.710 -38.578 NIL 66 C_66    0.000
1341 O4* -8.443 -3.998 -38.448 NIL 66 C_66    0.000
1342 C1* -8.160 -4.769 -37.299 NIL 66 C_66    0.000
1343 N1 -7.014 -4.093 -36.629 NIL 66 C_66    0.000
1344 C6 -7.207 -3.002 -35.840 NIL 66 C_66    0.000
1345 C5 -6.163 -2.386 -35.230 NIL 66 C_66    0.000
1346 C4 -4.860 -2.939 -35.458 NIL 66 C_66    0.000
1347 N4 -3.796 -2.388 -34.894 NIL 66 C_66    0.000
1348 N3 -4.682 -4.013 -36.237 NIL 66 C_66    0.000
1349 C2 -5.740 -4.615 -36.838 NIL 66 C_66    0.000
1350 O2 -5.614 -5.609 -37.565 NIL 66 C_66    0.000
1351 C3* -10.514 -4.614 -37.550 NIL 66 C_66    0.000
1352 C2* -9.441 -4.767 -36.472 NIL 66 C_66    0.000
1353 O3* -10.823 -5.892 -38.090 NIL 66 C_66    0.000
1354 P 3.626 -8.745 -40.396 NIL 67 G_67    0.000
1355 O1P 4.311 -9.990 -40.809 NIL 67 G_67    0.000
1356 O2P 4.344 -7.471 -40.622 NIL 67 G_67    0.000
1357 O5* 2.204 -8.779 -41.127 NIL 67 G_67    0.000
1358 C5* 1.182 -9.658 -40.624 NIL 67 G_67    0.000
1359 C4* -0.074 -9.527 -41.464 NIL 67 G_67    0.000
1360 O4* -0.770 -8.406 -40.926 NIL 67 G_67    0.000
1361 C1* -0.779 -7.304 -41.811 NIL 67 G_67    0.000
1362 N9 -0.379 -6.124 -40.994 NIL 67 G_67    0.000
1363 C8 0.880 -5.716 -40.611 NIL 67 G_67    0.000
1364 N7 0.889 -4.624 -39.887 NIL 67 G_67    0.000
1365 C5 -0.458 -4.283 -39.784 NIL 67 G_67    0.000
1366 C6 -1.077 -3.192 -39.119 NIL 67 G_67    0.000
1367 O6 -0.554 -2.287 -38.475 NIL 67 G_67    0.000
1368 N1 -2.470 -3.226 -39.268 NIL 67 G_67    0.000
1369 C2 -3.174 -4.188 -39.967 NIL 67 G_67    0.000
1370 N2 -4.500 -4.041 -39.991 NIL 67 G_67    0.000
1371 N3 -2.592 -5.210 -40.590 NIL 67 G_67    0.000
1372 C4 -1.241 -5.193 -40.457 NIL 67 G_67    0.000
1373 C3* 0.144 -9.178 -42.936 NIL 67 G_67    0.000
1374 C2* 0.215 -7.652 -42.914 NIL 67 G_67    0.000
1375 O3* -0.951 -9.586 -43.745 NIL 67 G_67    0.000
1376 P -6.727 4.601 -36.429 NIL 68 C_68    0.000
1377 O1P -7.778 5.619 -36.207 NIL 68 C_68    0.000
1378 O2P -5.762 4.373 -35.330 NIL 68 C_68    0.000
1379 O5* -7.507 3.266 -36.840 NIL 68 C_68    0.000
1380 C5* -8.065 3.164 -38.162 NIL 68 C_68    0.000
1381 C4* -8.754 1.823 -38.331 NIL 68 C_68    0.000
1382 O4* -7.719 0.912 -38.694 NIL 68 C_68    0.000
1383 C1* -7.448 -0.026 -37.672 NIL 68 C_68    0.000
1384 N1 -5.967 -0.037 -37.513 NIL 68 C_68    0.000
1385 C6 -5.333 0.923 -36.789 NIL 68 C_68    0.000
1386 C5 -3.983 0.914 -36.644 NIL 68 C_68    0.000
1387 C4 -3.270 -0.150 -37.288 NIL 68 C_68    0.000
1388 N4 -1.951 -0.221 -37.188 NIL 68 C_68    0.000
1389 N3 -3.905 -1.090 -37.999 NIL 68 C_68    0.000
1390 C2 -5.256 -1.062 -38.131 NIL 68 C_68    0.000
1391 O2 -5.877 -1.913 -38.781 NIL 68 C_68    0.000
1392 C3* -9.369 1.227 -37.065 NIL 68 C_68    0.000
1393 C2* -8.194 0.476 -36.440 NIL 68 C_68    0.000
1394 O3* -10.410 0.307 -37.363 NIL 68 C_68    0.000
1395 P -0.871 -8.629 -44.531 NIL 69 G_69    0.000
1396 O1P -1.048 -9.994 -45.073 NIL 69 G_69    0.000
1397 O2P 0.230 -7.814 -45.093 NIL 69 G_69    0.000
1398 O5* -2.295 -7.919 -44.694 NIL 69 G_69    0.000
1399 C5* -3.359 -8.276 -43.793 NIL 69 G_69    0.000
1400 C4* -4.609 -7.485 -44.128 NIL 69 G_69    0.000
1401 O4* -4.455 -6.236 -43.457 NIL 69 G_69    0.000
1402 C1* -4.255 -5.165 -44.356 NIL 69 G_69    0.000
1403 N9 -3.089 -4.404 -43.826 NIL 69 G_69    0.000
1404 C8 -1.744 -4.671 -43.955 NIL 69 G_69    0.000
1405 N7 -0.967 -3.795 -43.364 NIL 69 G_69    0.000
1406 C5 -1.861 -2.883 -42.805 NIL 69 G_69    0.000
1407 C6 -1.614 -1.713 -42.042 NIL 69 G_69    0.000
1408 O6 -0.539 -1.231 -41.697 NIL 69 G_69    0.000
1409 N1 -2.811 -1.081 -41.673 NIL 69 G_69    0.000
1410 C2 -4.078 -1.523 -41.999 NIL 69 G_69    0.000
1411 N2 -5.091 -0.777 -41.552 NIL 69 G_69    0.000
1412 N3 -4.308 -2.621 -42.715 NIL 69 G_69    0.000
1413 C4 -3.159 -3.246 -43.082 NIL 69 G_69    0.000
1414 C3* -4.786 -7.113 -45.600 NIL 69 G_69    0.000
1415 C2* -4.002 -5.807 -45.716 NIL 69 G_69    0.000
1416 O3* -6.149 -6.874 -45.927 NIL 69 G_69    0.000
1417 P -1.573 7.453 -38.057 NIL 70 C_70    0.000
1418 O1P -1.867 8.810 -37.542 NIL 70 C_70    0.000
1419 O2P -0.514 6.683 -37.368 NIL 70 C_70    0.000
1420 O5* -2.977 6.686 -38.060 NIL 70 C_70    0.000
1421 C5* -3.942 7.003 -39.079 NIL 70 C_70    0.000
1422 C4* -5.190 6.161 -38.891 NIL 70 C_70    0.000
1423 O4* -4.909 4.922 -39.537 NIL 70 C_70    0.000
1424 C1* -4.772 3.857 -38.618 NIL 70 C_70    0.000
1425 N1 -3.523 3.144 -39.006 NIL 70 C_70    0.000
1426 C6 -2.303 3.614 -38.631 NIL 70 C_70    0.000
1427 C5 -1.164 2.965 -38.985 NIL 70 C_70    0.000
1428 C4 -1.314 1.772 -39.765 NIL 70 C_70    0.000
1429 N4 -0.245 1.088 -40.144 NIL 70 C_70    0.000
1430 N3 -2.520 1.319 -40.128 NIL 70 C_70    0.000
1431 C2 -3.647 1.983 -39.764 NIL 70 C_70    0.000
1432 O2 -4.778 1.596 -40.082 NIL 70 C_70    0.000
1433 C3* -5.523 5.780 -37.448 NIL 70 C_70    0.000
1434 C2* -4.706 4.505 -37.239 NIL 70 C_70    0.000
1435 O3* -6.903 5.486 -37.282 NIL 70 C_70    0.000
1436 P -5.909 -5.982 -46.756 NIL 71 G_71    0.000
1437 O1P -6.886 -7.040 -47.097 NIL 71 G_71    0.000
1438 O2P -4.833 -5.712 -47.735 NIL 71 G_71    0.000
1439 O5* -6.785 -4.680 -46.442 NIL 71 G_71    0.000
1440 C5* -7.497 -4.603 -45.194 NIL 71 G_71    0.000
1441 C4* -8.255 -3.291 -45.109 NIL 71 G_71    0.000
1442 O4* -7.307 -2.340 -44.631 NIL 71 G_71    0.000
1443 C1* -6.956 -1.389 -45.616 NIL 71 G_71    0.000
1444 N9 -5.468 -1.319 -45.601 NIL 71 G_71    0.000
1445 C8 -4.550 -2.162 -46.188 NIL 71 G_71    0.000
1446 N7 -3.302 -1.818 -45.983 NIL 71 G_71    0.000
1447 C5 -3.400 -0.665 -45.206 NIL 71 G_71    0.000
1448 C6 -2.381 0.165 -44.670 NIL 71 G_71    0.000
1449 O6 -1.163 0.053 -44.773 NIL 71 G_71    0.000
1450 N1 -2.923 1.232 -43.940 NIL 71 G_71    0.000
1451 C2 -4.271 1.467 -43.752 NIL 71 G_71    0.000
1452 N2 -4.582 2.541 -43.023 NIL 71 G_71    0.000
1453 N3 -5.225 0.688 -44.255 NIL 71 G_71    0.000
1454 C4 -4.718 -0.352 -44.967 NIL 71 G_71    0.000
1455 C3* -8.741 -2.718 -46.440 NIL 71 G_71    0.000
1456 C2* -7.532 -1.918 -46.926 NIL 71 G_71    0.000
1457 O3* -9.846 -1.841 -46.268 NIL 71 G_71    0.000
1458 P 3.367 7.759 -41.640 NIL 72 C_72    0.000
1459 O1P 3.949 9.030 -41.153 NIL 72 C_72    0.000
1460 O2P 4.104 6.514 -41.328 NIL 72 C_72    0.000
1461 O5* 1.869 7.735 -41.080 NIL 72 C_72    0.000
1462 C5* 0.879 8.574 -41.700 NIL 72 C_72    0.000
1463 C4* -0.461 8.390 -41.013 NIL 72 C_72    0.000
1464 O4* -1.044 7.243 -41.626 NIL 72 C_72    0.000
1465 C1* -1.111 6.140 -40.745 NIL 72 C_72    0.000
1466 N1 -0.572 4.979 -41.506 NIL 72 C_72    0.000
1467 C6 0.768 4.785 -41.633 NIL 72 C_72    0.000
1468 C5 1.260 3.727 -42.328 NIL 72 C_72    0.000
1469 C4 0.303 2.835 -42.913 NIL 72 C_72    0.000
1470 N4 0.713 1.782 -43.603 NIL 72 C_72    0.000
1471 N3 -1.014 3.035 -42.781 NIL 72 C_72    0.000
1472 C2 -1.485 4.100 -42.083 NIL 72 C_72    0.000
1473 O2 -2.695 4.318 -41.941 NIL 72 C_72    0.000
1474 C3* -0.402 8.047 -39.525 NIL 72 C_72    0.000
1475 C2* -0.268 6.524 -39.534 NIL 72 C_72    0.000
1476 O3* -1.599 8.408 -38.849 NIL 72 C_72    0.000
1477 P -9.523 -1.073 -47.189 NIL 73 G_73    0.000
1478 O1P -10.932 -1.513 -47.076 NIL 73 G_73    0.000
1479 O2P -8.870 -1.224 -48.508 NIL 73 G_73    0.000
1480 O5* -9.509 0.442 -46.674 NIL 73 G_73    0.000
1481 C5* -9.610 0.699 -45.262 NIL 73 G_73    0.000
1482 C4* -9.576 2.193 -45.003 NIL 73 G_73    0.000
1483 O4* -8.193 2.537 -44.970 NIL 73 G_73    0.000
1484 C1* -7.808 3.322 -46.081 NIL 73 G_73    0.000
1485 N9 -6.566 2.694 -46.611 NIL 73 G_73    0.000
1486 C8 -6.426 1.594 -47.428 NIL 73 G_73    0.000
1487 N7 -5.182 1.296 -47.714 NIL 73 G_73    0.000
1488 C5 -4.445 2.267 -47.039 NIL 73 G_73    0.000
1489 C6 -3.042 2.466 -46.970 NIL 73 G_73    0.000
1490 O6 -2.146 1.815 -47.499 NIL 73 G_73    0.000
1491 N1 -2.721 3.573 -46.172 NIL 73 G_73    0.000
1492 C2 -3.636 4.382 -45.526 NIL 73 G_73    0.000
1493 N2 -3.126 5.389 -44.813 NIL 73 G_73    0.000
1494 N3 -4.952 4.195 -45.592 NIL 73 G_73    0.000
1495 C4 -5.281 3.126 -46.362 NIL 73 G_73    0.000
1496 C3* -10.168 3.072 -46.106 NIL 73 G_73    0.000
1497 C2* -8.984 3.270 -47.052 NIL 73 G_73    0.000
1498 O3* -10.588 4.335 -45.609 NIL 73 G_73    0.000
1499 P 6.249 6.145 -46.781 NIL 74 C_74    0.000
1500 O1P 7.489 6.939 -46.630 NIL 74 C_74    0.000
1501 O2P 6.369 4.674 -46.668 NIL 74 C_74    0.000
1502 O5* 5.222 6.754 -45.716 NIL 74 C_74    0.000
1503 C5* 4.598 8.019 -45.995 NIL 74 C_74    0.000
1504 C4* 3.669 8.401 -44.857 NIL 74 C_74    0.000
1505 O4* 2.441 7.730 -45.134 NIL 74 C_74    0.000
1506 C1* 2.178 6.692 -44.211 NIL 74 C_74    0.000
1507 N1 1.800 5.507 -45.031 NIL 74 C_74    0.000
1508 C6 2.748 4.731 -45.620 NIL 74 C_74    0.000
1509 C5 2.404 3.651 -46.367 NIL 74 C_74    0.000
1510 C4 1.005 3.375 -46.500 NIL 74 C_74    0.000
1511 N4 0.597 2.336 -47.215 NIL 74 C_74    0.000
1512 N3 0.079 4.145 -45.916 NIL 74 C_74    0.000
1513 C2 0.445 5.221 -45.173 NIL 74 C_74    0.000
1514 O2 -0.382 5.957 -44.618 NIL 74 C_74    0.000
1515 C3* 4.078 7.904 -43.471 NIL 74 C_74    0.000
1516 C2* 3.467 6.504 -43.419 NIL 74 C_74    0.000
1517 O3* 3.517 8.700 -42.436 NIL 74 C_74    0.000
1518 P -10.290 4.964 -46.636 NIL 75 G_75    0.000
1519 O1P -11.598 5.216 -45.990 NIL 75 G_75    0.000
1520 O2P -10.296 4.677 -48.088 NIL 75 G_75    0.000
1521 O5* -9.385 6.232 -46.272 NIL 75 G_75    0.000
1522 C5* -8.849 6.347 -44.942 NIL 75 G_75    0.000
1523 C4* -8.027 7.616 -44.821 NIL 75 G_75    0.000
1524 O4* -6.734 7.275 -45.316 NIL 75 G_75    0.000
1525 C1* -6.445 7.911 -46.543 NIL 75 G_75    0.000
1526 N9 -5.921 6.844 -47.441 NIL 75 G_75    0.000
1527 C8 -6.613 5.903 -48.172 NIL 75 G_75    0.000
1528 N7 -5.847 5.098 -48.867 NIL 75 G_75    0.000
1529 C5 -4.556 5.535 -48.576 NIL 75 G_75    0.000
1530 C6 -3.302 5.053 -49.033 NIL 75 G_75    0.000
1531 O6 -3.070 4.125 -49.803 NIL 75 G_75    0.000
1532 N1 -2.241 5.789 -48.488 NIL 75 G_75    0.000
1533 C2 -2.373 6.851 -47.615 NIL 75 G_75    0.000
1534 N2 -1.236 7.421 -47.209 NIL 75 G_75    0.000
1535 N3 -3.550 7.303 -47.186 NIL 75 G_75    0.000
1536 C4 -4.590 6.601 -47.706 NIL 75 G_75    0.000
1537 C3* -8.480 8.786 -45.694 NIL 75 G_75    0.000
1538 C2* -7.761 8.518 -47.016 NIL 75 G_75    0.000
1539 O3* -8.051 10.036 -45.171 NIL 75 G_75    0.000
1540 P 6.014 3.968 -52.486 NIL 76 C_76    0.000
1541 O1P 7.444 4.076 -52.852 NIL 76 C_76    0.000
1542 O2P 5.458 2.607 -52.319 NIL 76 C_76    0.000
1543 O5* 5.844 4.859 -51.168 NIL 76 C_76    0.000
1544 C5* 5.836 6.292 -51.292 NIL 76 C_76    0.000
1545 C4* 5.664 6.930 -49.926 NIL 76 C_76    0.000
1546 O4* 4.258 6.939 -49.691 NIL 76 C_76    0.000
1547 C1* 3.880 6.045 -48.663 NIL 76 C_76    0.000
1548 N1 2.729 5.270 -49.203 NIL 76 C_76    0.000
1549 C6 2.924 4.214 -50.038 NIL 76 C_76    0.000
1550 C5 1.874 3.508 -50.530 NIL 76 C_76    0.000
1551 C4 0.565 3.927 -50.127 NIL 76 C_76    0.000
1552 N4 -0.505 3.283 -50.569 NIL 76 C_76    0.000
1553 N3 0.384 4.968 -49.305 NIL 76 C_76    0.000
1554 C2 1.448 5.661 -48.824 NIL 76 C_76    0.000
1555 O2 1.320 6.629 -48.062 NIL 76 C_76    0.000
1556 C3* 6.249 6.149 -48.750 NIL 76 C_76    0.000
1557 C2* 5.114 5.194 -48.380 NIL 76 C_76    0.000
1558 O3* 6.534 6.992 -47.642 NIL 76 C_76    0.000
1559 P -7.875 10.566 -46.279 NIL 77 G_77    0.000
1560 O1P -8.587 11.320 -45.223 NIL 77 G_77    0.000
1561 O2P -8.525 10.479 -47.606 NIL 77 G_77    0.000
1562 O5* -6.417 11.221 -46.359 NIL 77 G_77    0.000
1563 C5* -5.462 10.925 -45.325 NIL 77 G_77    0.000
1564 C4* -4.157 11.648 -45.602 NIL 77 G_77    0.000
1565 O4* -3.446 10.805 -46.505 NIL 77 G_77    0.000
1566 C1* -3.343 11.368 -47.797 NIL 77 G_77    0.000
1567 N9 -3.738 10.288 -48.744 NIL 77 G_77    0.000
1568 C8 -4.997 9.863 -49.105 NIL 77 G_77    0.000
1569 N7 -5.001 8.878 -49.970 NIL 77 G_77    0.000
1570 C5 -3.648 8.633 -50.199 NIL 77 G_77    0.000
1571 C6 -3.022 7.680 -51.043 NIL 77 G_77    0.000
1572 O6 -3.540 6.843 -51.776 NIL 77 G_77    0.000
1573 N1 -1.624 7.775 -50.973 NIL 77 G_77    0.000
1574 C2 -0.925 8.672 -50.190 NIL 77 G_77    0.000
1575 N2 0.406 8.602 -50.266 NIL 77 G_77    0.000
1576 N3 -1.514 9.566 -49.399 NIL 77 G_77    0.000
1577 C4 -2.868 9.488 -49.455 NIL 77 G_77    0.000
1578 C3* -4.280 12.984 -46.334 NIL 77 G_77    0.000
1579 C2* -4.289 12.564 -47.804 NIL 77 G_77    0.000
1580 O3* -3.161 13.826 -46.093 NIL 77 G_77    0.000
1581 P 2.793 2.803 -57.547 NIL 78 C_78    0.000
1582 O1P 3.872 2.277 -58.412 NIL 78 C_78    0.000
1583 O2P 1.761 1.844 -57.093 NIL 78 C_78    0.000
1584 O5* 3.538 3.517 -56.325 NIL 78 C_78    0.000
1585 C5* 4.163 4.795 -56.540 NIL 78 C_78    0.000
1586 C4* 4.804 5.282 -55.254 NIL 78 C_78    0.000
1587 O4* 3.753 5.914 -54.526 NIL 78 C_78    0.000
1588 C1* 3.388 5.188 -53.371 NIL 78 C_78    0.000
1589 N1 1.902 5.099 -53.400 NIL 78 C_78    0.000
1590 C6 1.269 4.174 -54.170 NIL 78 C_78    0.000
1591 C5 -0.086 4.094 -54.197 NIL 78 C_78    0.000
1592 C4 -0.806 5.024 -53.379 NIL 78 C_78    0.000
1593 N4 -2.131 5.001 -53.356 NIL 78 C_78    0.000
1594 N3 -0.174 5.930 -52.624 NIL 78 C_78    0.000
1595 C2 1.183 5.994 -52.612 NIL 78 C_78    0.000
1596 O2 1.803 6.818 -51.927 NIL 78 C_78    0.000
1597 C3* 5.323 4.193 -54.317 NIL 78 C_78    0.000
1598 C2* 4.086 3.837 -53.493 NIL 78 C_78    0.000
1599 O3* 6.340 4.678 -53.450 NIL 78 C_78    0.000
1600 P -3.159 14.335 -47.225 NIL 79 G_79    0.000
1601 O1P -3.009 15.209 -46.040 NIL 79 G_79    0.000
1602 O2P -4.192 14.708 -48.216 NIL 79 G_79    0.000
1603 O5* -1.699 14.246 -47.874 NIL 79 G_79    0.000
1604 C5* -0.702 13.427 -47.237 NIL 79 G_79    0.000
1605 C4* 0.597 13.490 -48.019 NIL 79 G_79    0.000
1606 O4* 0.459 12.521 -49.055 NIL 79 G_79    0.000
1607 C1* 0.352 13.114 -50.333 NIL 79 G_79    0.000
1608 N9 -0.808 12.452 -50.993 NIL 79 G_79    0.000
1609 C8 -2.155 12.702 -50.842 NIL 79 G_79    0.000
1610 N7 -2.925 11.935 -51.574 NIL 79 G_79    0.000
1611 C5 -2.026 11.119 -52.259 NIL 79 G_79    0.000
1612 C6 -2.265 10.086 -53.201 NIL 79 G_79    0.000
1613 O6 -3.336 9.672 -53.635 NIL 79 G_79    0.000
1614 N1 -1.065 9.515 -53.649 NIL 79 G_79    0.000
1615 C2 0.199 9.892 -53.239 NIL 79 G_79    0.000
1616 N2 1.217 9.223 -53.786 NIL 79 G_79    0.000
1617 N3 0.422 10.862 -52.355 NIL 79 G_79    0.000
1618 C4 -0.731 11.427 -51.911 NIL 79 G_79    0.000
1619 C3* 0.869 14.804 -48.750 NIL 79 G_79    0.000
1620 C2* 0.147 14.604 -50.083 NIL 79 G_79    0.000
1621 O3* 2.256 15.000 -48.992 NIL 79 G_79    0.000
1622 P -2.141 3.836 -61.000 NIL 80 C_80    0.000
1623 O1P -1.820 2.971 -62.158 NIL 80 C_80    0.000
1624 O2P -3.268 3.419 -60.136 NIL 80 C_80    0.000
1625 O5* -0.772 3.982 -60.186 NIL 80 C_80    0.000
1626 C5* 0.259 4.841 -60.704 NIL 80 C_80    0.000
1627 C4* 1.459 4.829 -59.776 NIL 80 C_80    0.000
1628 O4* 1.162 5.789 -58.765 NIL 80 C_80    0.000
1629 C1* 0.931 5.190 -57.506 NIL 80 C_80    0.000
1630 N1 -0.324 5.803 -56.988 NIL 80 C_80    0.000
1631 C6 -1.542 5.369 -57.409 NIL 80 C_80    0.000
1632 C5 -2.686 5.928 -56.938 NIL 80 C_80    0.000
1633 C4 -2.543 6.987 -55.983 NIL 80 C_80    0.000
1634 N4 -3.618 7.577 -55.481 NIL 80 C_80    0.000
1635 N3 -1.339 7.406 -55.576 NIL 80 C_80    0.000
1636 C2 -0.207 6.834 -56.060 NIL 80 C_80    0.000
1637 O2 0.923 7.195 -55.708 NIL 80 C_80    0.000
1638 C3* 1.696 3.525 -59.014 NIL 80 C_80    0.000
1639 C2* 0.817 3.693 -57.775 NIL 80 C_80    0.000
1640 O3* 3.052 3.385 -58.612 NIL 80 C_80    0.000
1641 P 23.588 -40.277 -70.499 NIL 81 G_81    0.000
1642 O1P 22.238 -40.877 -70.583 NIL 81 G_81    0.000
1643 O2P 24.539 -40.880 -69.539 NIL 81 G_81    0.000
1644 O5* 24.151 -40.283 -71.997 NIL 81 G_81    0.000
1645 C5* 23.642 -39.321 -72.937 NIL 81 G_81    0.000
1646 C4* 24.311 -39.509 -74.285 NIL 81 G_81    0.000
1647 O4* 25.536 -38.784 -74.201 NIL 81 G_81    0.000
1648 C1* 26.664 -39.635 -74.188 NIL 81 G_81    0.000
1649 N9 27.518 -39.161 -73.064 NIL 81 G_81    0.000
1650 C8 27.401 -39.413 -71.715 NIL 81 G_81    0.000
1651 N7 28.325 -38.840 -70.983 NIL 81 G_81    0.000
1652 C5 29.110 -38.160 -71.912 NIL 81 G_81    0.000
1653 C6 30.263 -37.355 -71.721 NIL 81 G_81    0.000
1654 O6 30.839 -37.073 -70.674 NIL 81 G_81    0.000
1655 N1 30.747 -36.857 -72.939 NIL 81 G_81    0.000
1656 C2 30.190 -37.103 -74.178 NIL 81 G_81    0.000
1657 N2 30.802 -36.535 -75.219 NIL 81 G_81    0.000
1658 N3 29.108 -37.858 -74.357 NIL 81 G_81    0.000
1659 C4 28.626 -38.350 -73.186 NIL 81 G_81    0.000
1660 C3* 24.730 -40.939 -74.625 NIL 81 G_81    0.000
1661 C2* 26.116 -41.045 -73.990 NIL 81 G_81    0.000
1662 O3* 24.839 -41.141 -76.028 NIL 81 G_81    0.000
1663 P 39.186 -32.885 -72.263 NIL 82 C_82    0.000
1664 O1P 40.478 -32.275 -72.647 NIL 82 C_82    0.000
1665 O2P 38.500 -32.329 -71.076 NIL 82 C_82    0.000
1666 O5* 38.276 -32.817 -73.578 NIL 82 C_82    0.000
1667 C5* 38.536 -33.736 -74.654 NIL 82 C_82    0.000
1668 C4* 37.560 -33.494 -75.790 NIL 82 C_82    0.000
1669 O4* 36.389 -34.228 -75.441 NIL 82 C_82    0.000
1670 C1* 35.303 -33.384 -75.119 NIL 82 C_82    0.000
1671 N1 34.745 -33.910 -73.842 NIL 82 C_82    0.000
1672 C6 35.322 -33.610 -72.648 NIL 82 C_82    0.000
1673 C5 34.814 -34.091 -71.484 NIL 82 C_82    0.000
1674 C4 33.650 -34.921 -71.579 NIL 82 C_82    0.000
1675 N4 33.101 -35.423 -70.483 NIL 82 C_82    0.000
1676 N3 33.090 -35.210 -72.760 NIL 82 C_82    0.000
1677 C2 33.614 -34.720 -73.912 NIL 82 C_82    0.000
1678 O2 33.124 -34.965 -75.022 NIL 82 C_82    0.000
1679 C3* 37.079 -32.053 -75.956 NIL 82 C_82    0.000
1680 C2* 35.889 -31.981 -74.999 NIL 82 C_82    0.000
1681 O3* 36.633 -31.791 -77.280 NIL 82 C_82    0.000
1682 P 25.790 -41.935 -75.953 NIL 83 G_83    0.000
1683 O1P 24.651 -42.254 -76.843 NIL 83 G_83    0.000
1684 O2P 26.217 -42.982 -74.998 NIL 83 G_83    0.000
1685 O5* 26.976 -41.480 -76.925 NIL 83 G_83    0.000
1686 C5* 26.919 -40.176 -77.531 NIL 83 G_83    0.000
1687 C4* 28.138 -39.958 -78.407 NIL 83 G_83    0.000
1688 O4* 29.160 -39.506 -77.523 NIL 83 G_83    0.000
1689 C1* 30.188 -40.462 -77.357 NIL 83 G_83    0.000
1690 N9 30.414 -40.564 -75.888 NIL 83 G_83    0.000
1691 C8 29.701 -41.269 -74.943 NIL 83 G_83    0.000
1692 N7 30.165 -41.147 -73.724 NIL 83 G_83    0.000
1693 C5 31.264 -40.301 -73.870 NIL 83 G_83    0.000
1694 C6 32.170 -39.805 -72.898 NIL 83 G_83    0.000
1695 O6 32.192 -40.013 -71.688 NIL 83 G_83    0.000
1696 N1 33.139 -38.975 -73.479 NIL 83 G_83    0.000
1697 C2 33.221 -38.666 -74.823 NIL 83 G_83    0.000
1698 N2 34.221 -37.856 -75.178 NIL 83 G_83    0.000
1699 N3 32.370 -39.133 -75.734 NIL 83 G_83    0.000
1700 C4 31.424 -39.940 -75.187 NIL 83 G_83    0.000
1701 C3* 28.718 -41.211 -79.062 NIL 83 G_83    0.000
1702 C2* 29.663 -41.747 -77.987 NIL 83 G_83    0.000
1703 O3* 29.465 -40.901 -80.231 NIL 83 G_83    0.000
1704 P 40.179 -36.835 -67.707 NIL 84 C_84    0.000
1705 O1P 41.480 -36.327 -67.218 NIL 84 C_84    0.000
1706 O2P 39.005 -36.654 -66.824 NIL 84 C_84    0.000
1707 O5* 39.970 -36.157 -69.141 NIL 84 C_84    0.000
1708 C5* 40.728 -36.648 -70.261 NIL 84 C_84    0.000
1709 C4* 40.372 -35.865 -71.511 NIL 84 C_84    0.000
1710 O4* 39.200 -36.492 -72.026 NIL 84 C_84    0.000
1711 C1* 38.056 -35.671 -71.905 NIL 84 C_84    0.000
1712 N1 36.995 -36.537 -71.319 NIL 84 C_84    0.000
1713 C6 36.950 -36.782 -69.982 NIL 84 C_84    0.000
1714 C5 35.983 -37.572 -69.447 NIL 84 C_84    0.000
1715 C4 35.023 -38.126 -70.356 NIL 84 C_84    0.000
1716 N4 34.053 -38.905 -69.903 NIL 84 C_84    0.000
1717 N3 35.077 -37.877 -71.670 NIL 84 C_84    0.000
1718 C2 36.053 -37.085 -72.185 NIL 84 C_84    0.000
1719 O2 36.135 -36.833 -73.394 NIL 84 C_84    0.000
1720 C3* 39.968 -34.408 -71.290 NIL 84 C_84    0.000
1721 C2* 38.470 -34.513 -71.003 NIL 84 C_84    0.000
1722 O3* 40.169 -33.619 -72.454 NIL 84 C_84    0.000
1723 P 30.305 -41.801 -80.069 NIL 85 G_85    0.000
1724 O1P 29.713 -41.600 -81.411 NIL 85 G_85    0.000
1725 O2P 30.285 -43.175 -79.520 NIL 85 G_85    0.000
1726 O5* 31.787 -41.206 -80.163 NIL 85 G_85    0.000
1727 C5* 31.966 -39.779 -80.168 NIL 85 G_85    0.000
1728 C4* 33.442 -39.441 -80.263 NIL 85 G_85    0.000
1729 O4* 33.928 -39.501 -78.924 NIL 85 G_85    0.000
1730 C1* 34.799 -40.594 -78.718 NIL 85 G_85    0.000
1731 N9 34.331 -41.257 -77.469 NIL 85 G_85    0.000
1732 C8 33.291 -42.143 -77.290 NIL 85 G_85    0.000
1733 N7 33.140 -42.545 -76.051 NIL 85 G_85    0.000
1734 C5 34.152 -41.879 -75.361 NIL 85 G_85    0.000
1735 C6 34.493 -41.912 -73.984 NIL 85 G_85    0.000
1736 O6 33.966 -42.548 -73.076 NIL 85 G_85    0.000
1737 N1 35.590 -41.083 -73.709 NIL 85 G_85    0.000
1738 C2 36.267 -40.322 -74.642 NIL 85 G_85    0.000
1739 N2 37.288 -39.598 -74.177 NIL 85 G_85    0.000
1740 N3 35.945 -40.291 -75.933 NIL 85 G_85    0.000
1741 C4 34.884 -41.090 -76.218 NIL 85 G_85    0.000
1742 C3* 34.303 -40.441 -81.033 NIL 85 G_85    0.000
1743 C2* 34.669 -41.468 -79.962 NIL 85 G_85    0.000
1744 O3* 35.490 -39.843 -81.535 NIL 85 G_85    0.000
1745 P 39.119 -42.274 -65.132 NIL 86 C_86    0.000
1746 O1P 40.032 -42.181 -63.970 NIL 86 C_86    0.000
1747 O2P 37.666 -42.253 -64.854 NIL 86 C_86    0.000
1748 O5* 39.566 -41.097 -66.119 NIL 86 C_86    0.000
1749 C5* 40.770 -41.254 -66.890 NIL 86 C_86    0.000
1750 C4* 40.998 -40.026 -67.751 NIL 86 C_86    0.000
1751 O4* 40.215 -40.238 -68.924 NIL 86 C_86    0.000
1752 C1* 39.114 -39.357 -69.001 NIL 86 C_86    0.000
1753 N1 37.935 -40.207 -69.326 NIL 86 C_86    0.000
1754 C6 37.291 -40.913 -68.358 NIL 86 C_86    0.000
1755 C5 36.217 -41.689 -68.654 NIL 86 C_86    0.000
1756 C4 35.801 -41.723 -70.025 NIL 86 C_86    0.000
1757 N4 34.760 -42.459 -70.385 NIL 86 C_86    0.000
1758 N3 36.442 -41.024 -70.970 NIL 86 C_86    0.000
1759 C2 37.515 -40.254 -70.652 NIL 86 C_86    0.000
1760 O2 38.132 -39.595 -71.498 NIL 86 C_86    0.000
1761 C3* 40.483 -38.707 -67.176 NIL 86 C_86    0.000
1762 C2* 39.026 -38.683 -67.635 NIL 86 C_86    0.000
1763 O3* 41.166 -37.587 -67.723 NIL 86 C_86    0.000
1764 P 36.195 -40.855 -81.392 NIL 87 G_87    0.000
1765 O1P 36.277 -40.092 -82.658 NIL 87 G_87    0.000
1766 O2P 35.977 -42.315 -81.494 NIL 87 G_87    0.000
1767 O5* 37.532 -40.495 -80.591 NIL 87 G_87    0.000
1768 C5* 37.641 -39.208 -79.957 NIL 87 G_87    0.000
1769 C4* 38.983 -39.085 -79.261 NIL 87 G_87    0.000
1770 O4* 38.804 -39.701 -77.988 NIL 87 G_87    0.000
1771 C1* 39.524 -40.911 -77.871 NIL 87 G_87    0.000
1772 N9 38.560 -41.905 -77.321 NIL 87 G_87    0.000
1773 C8 37.587 -42.629 -77.975 NIL 87 G_87    0.000
1774 N7 36.901 -43.427 -77.195 NIL 87 G_87    0.000
1775 C5 37.458 -43.218 -75.934 NIL 87 G_87    0.000
1776 C6 37.132 -43.802 -74.683 NIL 87 G_87    0.000
1777 O6 36.271 -44.638 -74.424 NIL 87 G_87    0.000
1778 N1 37.949 -43.304 -73.658 NIL 87 G_87    0.000
1779 C2 38.950 -42.366 -73.821 NIL 87 G_87    0.000
1780 N2 39.617 -42.023 -72.717 NIL 87 G_87    0.000
1781 N3 39.254 -41.819 -74.996 NIL 87 G_87    0.000
1782 C4 38.472 -42.291 -76.001 NIL 87 G_87    0.000
1783 C3* 40.138 -39.852 -79.903 NIL 87 G_87    0.000
1784 C2* 40.010 -41.241 -79.278 NIL 87 G_87    0.000
1785 O3* 41.400 -39.297 -79.560 NIL 87 G_87    0.000
1786 P 37.199 -48.053 -65.637 NIL 88 C_88    0.000
1787 O1P 37.474 -48.528 -64.262 NIL 88 C_88    0.000
1788 O2P 35.780 -47.918 -66.036 NIL 88 C_88    0.000
1789 O5* 38.004 -46.679 -65.782 NIL 88 C_88    0.000
1790 C5* 39.433 -46.722 -65.946 NIL 88 C_88    0.000
1791 C4* 39.984 -45.313 -66.063 NIL 88 C_88    0.000
1792 O4* 39.834 -44.964 -67.437 NIL 88 C_88    0.000
1793 C1* 38.858 -43.961 -67.632 NIL 88 C_88    0.000
1794 N1 37.992 -44.447 -68.742 NIL 88 C_88    0.000
1795 C6 37.003 -45.353 -68.514 NIL 88 C_88    0.000
1796 C5 36.213 -45.797 -69.525 NIL 88 C_88    0.000
1797 C4 36.473 -45.266 -70.830 NIL 88 C_88    0.000
1798 N4 35.741 -45.655 -71.863 NIL 88 C_88    0.000
1799 N3 37.449 -44.375 -71.043 NIL 88 C_88    0.000
1800 C2 38.228 -43.945 -70.018 NIL 88 C_88    0.000
1801 O2 39.140 -43.123 -70.176 NIL 88 C_88    0.000
1802 C3* 39.215 -44.234 -65.302 NIL 88 C_88    0.000
1803 C2* 38.130 -43.826 -66.299 NIL 88 C_88    0.000
1804 O3* 40.031 -43.107 -65.010 NIL 88 C_88    0.000
1805 P 41.998 -40.385 -79.535 NIL 89 G_89    0.000
1806 O1P 42.622 -39.235 -80.226 NIL 89 G_89    0.000
1807 O2P 41.905 -41.657 -80.285 NIL 89 G_89    0.000
1808 O5* 42.805 -40.546 -78.163 NIL 89 G_89    0.000
1809 C5* 42.564 -39.611 -77.097 NIL 89 G_89    0.000
1810 C4* 43.432 -39.952 -75.901 NIL 89 G_89    0.000
1811 O4* 42.712 -40.956 -75.188 NIL 89 G_89    0.000
1812 C1* 43.343 -42.218 -75.256 NIL 89 G_89    0.000
1813 N9 42.272 -43.188 -75.619 NIL 89 G_89    0.000
1814 C8 41.734 -43.469 -76.855 NIL 89 G_89    0.000
1815 N7 40.796 -44.384 -76.834 NIL 89 G_89    0.000
1816 C5 40.706 -44.735 -75.488 NIL 89 G_89    0.000
1817 C6 39.865 -45.679 -74.844 NIL 89 G_89    0.000
1818 O6 39.013 -46.413 -75.336 NIL 89 G_89    0.000
1819 N1 40.103 -45.717 -73.462 NIL 89 G_89    0.000
1820 C2 41.032 -44.945 -72.792 NIL 89 G_89    0.000
1821 N2 41.106 -45.132 -71.472 NIL 89 G_89    0.000
1822 N3 41.820 -44.060 -73.398 NIL 89 G_89    0.000
1823 C4 41.603 -44.010 -74.738 NIL 89 G_89    0.000
1824 C3* 44.781 -40.597 -76.221 NIL 89 G_89    0.000
1825 C2* 44.432 -42.082 -76.315 NIL 89 G_89    0.000
1826 O3* 45.724 -40.401 -75.176 NIL 89 G_89    0.000
1827 P 35.938 -52.893 -69.149 NIL 90 C_90    0.000
1828 O1P 35.570 -53.871 -68.101 NIL 90 C_90    0.000
1829 O2P 34.855 -52.410 -70.035 NIL 90 C_90    0.000
1830 O5* 36.669 -51.698 -68.377 NIL 90 C_90    0.000
1831 C5* 38.014 -51.891 -67.906 NIL 90 C_90    0.000
1832 C4* 38.506 -50.637 -67.209 NIL 90 C_90    0.000
1833 O4* 38.989 -49.793 -68.251 NIL 90 C_90    0.000
1834 C1* 38.175 -48.653 -68.440 NIL 90 C_90    0.000
1835 N1 37.931 -48.566 -69.907 NIL 90 C_90    0.000
1836 C6 36.982 -49.333 -70.506 NIL 90 C_90    0.000
1837 C5 36.760 -49.255 -71.843 NIL 90 C_90    0.000
1838 C4 37.569 -48.330 -72.581 NIL 90 C_90    0.000
1839 N4 37.406 -48.202 -73.889 NIL 90 C_90    0.000
1840 N3 38.501 -47.580 -71.980 NIL 90 C_90    0.000
1841 C2 38.707 -47.674 -70.642 NIL 90 C_90    0.000
1842 O2 39.559 -46.998 -70.051 NIL 90 C_90    0.000
1843 C3* 37.434 -49.806 -66.503 NIL 90 C_90    0.000
1844 C2* 36.912 -48.906 -67.622 NIL 90 C_90    0.000
1845 O3* 37.984 -49.000 -65.469 NIL 90 C_90    0.000
1846 P 46.283 -41.499 -75.323 NIL 91 G_91    0.000
1847 O1P 47.112 -40.284 -75.161 NIL 91 G_91    0.000
1848 O2P 46.591 -42.381 -76.471 NIL 91 G_91    0.000
1849 O5* 46.378 -42.268 -73.924 NIL 91 G_91    0.000
1850 C5* 45.641 -41.761 -72.798 NIL 91 G_91    0.000
1851 C4* 45.877 -42.641 -71.584 NIL 91 G_91    0.000
1852 O4* 44.948 -43.715 -71.713 NIL 91 G_91    0.000
1853 C1* 45.585 -44.945 -71.989 NIL 91 G_91    0.000
1854 N9 44.837 -45.544 -73.129 NIL 91 G_91    0.000
1855 C8 44.936 -45.271 -74.475 NIL 91 G_91    0.000
1856 N7 44.127 -45.979 -75.224 NIL 91 G_91    0.000
1857 C5 43.443 -46.779 -74.310 NIL 91 G_91    0.000
1858 C6 42.435 -47.755 -74.523 NIL 91 G_91    0.000
1859 O6 41.931 -48.122 -75.581 NIL 91 G_91    0.000
1860 N1 42.016 -48.329 -73.315 NIL 91 G_91    0.000
1861 C2 42.505 -48.003 -72.065 NIL 91 G_91    0.000
1862 N2 41.973 -48.667 -71.036 NIL 91 G_91    0.000
1863 N3 43.450 -47.087 -71.866 NIL 91 G_91    0.000
1864 C4 43.869 -46.520 -73.027 NIL 91 G_91    0.000
1865 C3* 47.245 -43.318 -71.511 NIL 91 G_91    0.000
1866 C2* 47.033 -44.597 -72.321 NIL 91 G_91    0.000
1867 O3* 47.597 -43.660 -70.177 NIL 91 G_91    0.000
1868 P 36.605 -55.872 -74.442 NIL 92 C_92    0.000
1869 O1P 35.834 -57.098 -74.136 NIL 92 C_92    0.000
1870 O2P 36.031 -54.944 -75.442 NIL 92 C_92    0.000
1871 O5* 36.857 -55.165 -73.030 NIL 92 C_92    0.000
1872 C5* 37.843 -55.716 -72.140 NIL 92 C_92    0.000
1873 C4* 37.914 -54.891 -70.869 NIL 92 C_92    0.000
1874 O4* 38.789 -53.807 -71.173 NIL 92 C_92    0.000
1875 C1* 38.110 -52.569 -71.232 NIL 92 C_92    0.000
1876 N1 38.563 -51.918 -72.493 NIL 92 C_92    0.000
1877 C6 38.023 -52.263 -73.693 NIL 92 C_92    0.000
1878 C5 38.435 -51.670 -74.842 NIL 92 C_92    0.000
1879 C4 39.458 -50.673 -74.726 NIL 92 C_92    0.000
1880 N4 39.907 -50.053 -75.807 NIL 92 C_92    0.000
1881 N3 39.982 -50.341 -73.540 NIL 92 C_92    0.000
1882 C2 39.556 -50.947 -72.402 NIL 92 C_92    0.000
1883 O2 40.017 -50.668 -71.288 NIL 92 C_92    0.000
1884 C3* 36.608 -54.224 -70.436 NIL 92 C_92    0.000
1885 C2* 36.624 -52.911 -71.217 NIL 92 C_92    0.000
1886 O3* 36.593 -53.942 -69.043 NIL 92 C_92    0.000
1887 P 48.201 -44.700 -70.484 NIL 93 G_93    0.000
1888 O1P 48.818 -43.766 -69.516 NIL 93 G_93    0.000
1889 O2P 49.033 -45.138 -71.627 NIL 93 G_93    0.000
1890 O5* 47.673 -45.931 -69.610 NIL 93 G_93    0.000
1891 C5* 46.484 -45.765 -68.818 NIL 93 G_93    0.000
1892 C4* 46.170 -47.051 -68.077 NIL 93 G_93    0.000
1893 O4* 45.443 -47.852 -69.006 NIL 93 G_93    0.000
1894 C1* 46.181 -48.978 -69.435 NIL 93 G_93    0.000
1895 N9 46.060 -49.001 -70.920 NIL 93 G_93    0.000
1896 C8 46.755 -48.274 -71.861 NIL 93 G_93    0.000
1897 N7 46.406 -48.531 -73.098 NIL 93 G_93    0.000
1898 C5 45.409 -49.497 -72.968 NIL 93 G_93    0.000
1899 C6 44.648 -50.165 -73.961 NIL 93 G_93    0.000
1900 O6 44.698 -50.042 -75.181 NIL 93 G_93    0.000
1901 N1 43.743 -51.070 -73.389 NIL 93 G_93    0.000
1902 C2 43.593 -51.299 -72.035 NIL 93 G_93    0.000
1903 N2 42.674 -52.205 -71.693 NIL 93 G_93    0.000
1904 N3 44.308 -50.671 -71.104 NIL 93 G_93    0.000
1905 C4 45.191 -49.790 -71.641 NIL 93 G_93    0.000
1906 C3* 47.376 -47.905 -67.689 NIL 93 G_93    0.000
1907 C2* 47.606 -48.754 -68.939 NIL 93 G_93    0.000
1908 O3* 47.090 -48.758 -66.589 NIL 93 G_93    0.000
1909 P 39.732 -56.782 -79.613 NIL 94 C_94    0.000
1910 O1P 38.952 -57.905 -80.180 NIL 94 C_94    0.000
1911 O2P 39.646 -55.478 -80.308 NIL 94 C_94    0.000
1912 O5* 39.282 -56.684 -78.081 NIL 94 C_94    0.000
1913 C5* 39.771 -57.663 -77.147 NIL 94 C_94    0.000
1914 C4* 39.221 -57.378 -75.762 NIL 94 C_94    0.000
1915 O4* 40.098 -56.402 -75.203 NIL 94 C_94    0.000
1916 C1* 39.477 -55.141 -75.060 NIL 94 C_94    0.000
1917 N1 40.432 -54.151 -75.631 NIL 94 C_94    0.000
1918 C6 40.515 -53.949 -76.973 NIL 94 C_94    0.000
1919 C5 41.386 -53.048 -77.494 NIL 94 C_94    0.000
1920 C4 42.204 -52.327 -76.564 NIL 94 C_94    0.000
1921 N4 43.076 -51.431 -77.002 NIL 94 C_94    0.000
1922 N3 42.114 -52.533 -75.244 NIL 94 C_94    0.000
1923 C2 41.237 -53.440 -74.744 NIL 94 C_94    0.000
1924 O2 41.126 -53.659 -73.531 NIL 94 C_94    0.000
1925 C3* 37.839 -56.727 -75.716 NIL 94 C_94    0.000
1926 C2* 38.162 -55.238 -75.828 NIL 94 C_94    0.000
1927 O3* 37.177 -56.973 -74.483 NIL 94 C_94    0.000
1928 P 47.806 -49.693 -66.983 NIL 95 G_95    0.000
1929 O1P 47.876 -49.280 -65.563 NIL 95 G_95    0.000
1930 O2P 49.084 -49.804 -67.720 NIL 95 G_95    0.000
1931 O5* 46.982 -51.064 -66.986 NIL 95 G_95    0.000
1932 C5* 45.557 -51.021 -66.796 NIL 95 G_95    0.000
1933 C4* 44.986 -52.427 -66.836 NIL 95 G_95    0.000
1934 O4* 44.796 -52.716 -68.219 NIL 95 G_95    0.000
1935 C1* 45.689 -53.704 -68.688 NIL 95 G_95    0.000
1936 N9 46.263 -53.166 -69.953 NIL 95 G_95    0.000
1937 C8 47.285 -52.259 -70.130 NIL 95 G_95    0.000
1938 N7 47.550 -51.992 -71.385 NIL 95 G_95    0.000
1939 C5 46.641 -52.778 -72.091 NIL 95 G_95    0.000
1940 C6 46.445 -52.916 -73.489 NIL 95 G_95    0.000
1941 O6 47.044 -52.366 -74.409 NIL 95 G_95    0.000
1942 N1 45.412 -53.821 -73.774 NIL 95 G_95    0.000
1943 C2 44.667 -54.503 -72.831 NIL 95 G_95    0.000
1944 N2 43.727 -55.322 -73.308 NIL 95 G_95    0.000
1945 N3 44.852 -54.372 -71.520 NIL 95 G_95    0.000
1946 C4 45.850 -53.499 -71.226 NIL 95 G_95    0.000
1947 C3* 45.911 -53.534 -66.332 NIL 95 G_95    0.000
1948 C2* 46.719 -53.892 -67.579 NIL 95 G_95    0.000
1949 O3* 45.185 -54.676 -65.899 NIL 95 G_95    0.000
1950 P 44.911 -56.202 -82.803 NIL 96 C_96    0.000
1951 O1P 44.520 -56.910 -84.043 NIL 96 C_96    0.000
1952 O2P 45.105 -54.737 -82.893 NIL 96 C_96    0.000
1953 O5* 43.806 -56.603 -81.718 NIL 96 C_96    0.000
1954 C5* 43.849 -57.916 -81.132 NIL 96 C_96    0.000
1955 C4* 42.715 -58.077 -80.136 NIL 96 C_96    0.000
1956 O4* 43.202 -57.515 -78.920 NIL 96 C_96    0.000
1957 C1* 42.539 -56.315 -78.580 NIL 96 C_96    0.000
1958 N1 43.612 -55.340 -78.239 NIL 96 C_96    0.000
1959 C6 44.293 -54.678 -79.212 NIL 96 C_96    0.000
1960 C5 45.272 -53.790 -78.902 NIL 96 C_96    0.000
1961 C4 45.546 -53.588 -77.509 NIL 96 C_96    0.000
1962 N4 46.488 -52.736 -77.135 NIL 96 C_96    0.000
1963 N3 44.869 -54.245 -76.559 NIL 96 C_96    0.000
1964 C2 43.894 -55.130 -76.891 NIL 96 C_96    0.000
1965 O2 43.248 -55.756 -76.042 NIL 96 C_96    0.000
1966 C3* 41.443 -57.288 -80.445 NIL 96 C_96    0.000
1967 C2* 41.727 -55.927 -79.811 NIL 96 C_96    0.000
1968 O3* 40.299 -57.864 -79.829 NIL 96 C_96    0.000
1969 P 46.035 -55.498 -66.274 NIL 97 G_97    0.000
1970 O1P 45.432 -55.646 -64.931 NIL 97 G_97    0.000
1971 O2P 47.513 -55.523 -66.360 NIL 97 G_97    0.000
1972 O5* 45.356 -56.634 -67.173 NIL 97 G_97    0.000
1973 C5* 44.001 -56.451 -67.621 NIL 97 G_97    0.000
1974 C4* 43.564 -57.642 -68.453 NIL 97 G_97    0.000
1975 O4* 44.040 -57.375 -69.770 NIL 97 G_97    0.000
1976 C1* 45.085 -58.247 -70.150 NIL 97 G_97    0.000
1977 N9 46.154 -57.377 -70.716 NIL 97 G_97    0.000
1978 C8 47.109 -56.632 -70.059 NIL 97 G_97    0.000
1979 N7 47.910 -55.969 -70.857 NIL 97 G_97    0.000
1980 C5 47.454 -56.298 -72.133 NIL 97 G_97    0.000
1981 C6 47.926 -55.886 -73.406 NIL 97 G_97    0.000
1982 O6 48.859 -55.135 -73.675 NIL 97 G_97    0.000
1983 N1 47.172 -56.460 -74.440 NIL 97 G_97    0.000
1984 C2 46.104 -57.318 -74.267 NIL 97 G_97    0.000
1985 N2 45.518 -57.756 -75.383 NIL 97 G_97    0.000
1986 N3 45.663 -57.703 -73.071 NIL 97 G_97    0.000
1987 C4 46.382 -57.157 -72.057 NIL 97 G_97    0.000
1988 C3* 44.196 -58.982 -68.077 NIL 97 G_97    0.000
1989 C2* 45.498 -58.978 -68.877 NIL 97 G_97    0.000
1990 O3* 43.395 -60.081 -68.489 NIL 97 G_97    0.000
1991 P 50.951 -55.282 -82.912 NIL 98 C_98    0.000
1992 O1P 51.198 -55.422 -84.365 NIL 98 C_98    0.000
1993 O2P 51.111 -53.932 -82.326 NIL 98 C_98    0.000
1994 O5* 49.488 -55.880 -82.669 NIL 98 C_98    0.000
1995 C5* 49.305 -57.307 -82.692 NIL 98 C_98    0.000
1996 C4* 47.849 -57.648 -82.440 NIL 98 C_98    0.000
1997 O4* 47.703 -57.648 -81.021 NIL 98 C_98    0.000
1998 C1* 46.914 -56.569 -80.563 NIL 98 C_98    0.000
1999 N1 47.675 -55.958 -79.438 NIL 98 C_98    0.000
2000 C6 48.701 -55.097 -79.671 NIL 98 C_98    0.000
2001 C5 49.395 -54.541 -78.646 NIL 98 C_98    0.000
2002 C4 48.994 -54.904 -77.319 NIL 98 C_98    0.000
2003 N4 49.627 -54.398 -76.272 NIL 98 C_98    0.000
2004 N3 47.982 -55.753 -77.101 NIL 98 C_98    0.000
2005 C2 47.301 -56.299 -78.140 NIL 98 C_98    0.000
2006 O2 46.361 -57.087 -77.978 NIL 98 C_98    0.000
2007 C3* 46.831 -56.620 -82.933 NIL 98 C_98    0.000
2008 C2* 46.742 -55.643 -81.762 NIL 98 C_98    0.000
2009 O3* 45.554 -57.203 -83.157 NIL 98 C_98    0.000
2010 P 44.352 -60.827 -68.747 NIL 99 G_99    0.000
2011 O1P 43.207 -61.363 -67.978 NIL 99 G_99    0.000
2012 O2P 45.704 -61.040 -68.184 NIL 99 G_99    0.000
2013 O5* 44.202 -61.442 -70.216 NIL 99 G_99    0.000
2014 C5* 43.198 -60.907 -71.096 NIL 99 G_99    0.000
2015 C4* 43.235 -61.633 -72.428 NIL 99 G_99    0.000
2016 O4* 44.250 -60.979 -73.184 NIL 99 G_99    0.000
2017 C1* 45.385 -61.799 -73.381 NIL 99 G_99    0.000
2018 N9 46.561 -60.953 -73.033 NIL 99 G_99    0.000
2019 C8 47.081 -60.651 -71.794 NIL 99 G_99    0.000
2020 N7 48.133 -59.871 -71.832 NIL 99 G_99    0.000
2021 C5 48.325 -59.640 -73.194 NIL 99 G_99    0.000
2022 C6 49.312 -58.868 -73.860 NIL 99 G_99    0.000
2023 O6 50.236 -58.219 -73.378 NIL 99 G_99    0.000
2024 N1 49.138 -58.905 -75.250 NIL 99 G_99    0.000
2025 C2 48.141 -59.597 -75.910 NIL 99 G_99    0.000
2026 N2 48.148 -59.506 -77.242 NIL 99 G_99    0.000
2027 N3 47.216 -60.321 -75.284 NIL 99 G_99    0.000
2028 C4 47.370 -60.296 -73.935 NIL 99 G_99    0.000
2029 C3* 43.673 -63.097 -72.374 NIL 99 G_99    0.000
2030 C2* 45.196 -62.996 -72.456 NIL 99 G_99    0.000
2031 O3* 43.191 -63.836 -73.488 NIL 99 G_99    0.000
2032 P 56.332 -55.301 -80.016 NIL 100 C_100    0.000
2033 O1P 57.221 -54.938 -81.142 NIL 100 C_100    0.000
2034 O2P 56.155 -54.299 -78.942 NIL 100 C_100    0.000
2035 O5* 54.943 -55.721 -80.689 NIL 100 C_100    0.000
2036 C5* 54.844 -56.996 -81.346 NIL 100 C_100    0.000
2037 C4* 53.447 -57.184 -81.908 NIL 100 C_100    0.000
2038 O4* 52.668 -57.679 -80.822 NIL 100 C_100    0.000
2039 C1* 51.717 -56.736 -80.370 NIL 100 C_100    0.000
2040 N1 51.855 -56.699 -78.887 NIL 100 C_100    0.000
2041 C6 52.842 -55.976 -78.293 NIL 100 C_100    0.000
2042 C5 52.968 -55.942 -76.942 NIL 100 C_100    0.000
2043 C4 52.017 -56.699 -76.183 NIL 100 C_100    0.000
2044 N4 52.081 -56.711 -74.860 NIL 100 C_100    0.000
2045 N3 51.050 -57.407 -76.779 NIL 100 C_100    0.000
2046 C2 50.941 -57.428 -78.132 NIL 100 C_100    0.000
2047 O2 50.061 -58.071 -78.718 NIL 100 C_100    0.000
2048 C3* 52.731 -55.906 -82.348 NIL 100 C_100    0.000
2049 C2* 52.080 -55.422 -81.053 NIL 100 C_100    0.000
2050 O3* 51.721 -56.169 -83.312 NIL 100 C_100    0.000
2051 P 44.187 -64.572 -73.573 NIL 101 G_101    0.000
2052 O1P 42.836 -65.173 -73.657 NIL 101 G_101    0.000
2053 O2P 45.138 -65.175 -72.613 NIL 101 G_101    0.000
2054 O5* 44.749 -64.579 -75.071 NIL 101 G_101    0.000
2055 C5* 44.240 -63.616 -76.011 NIL 101 G_101    0.000
2056 C4* 44.910 -63.804 -77.359 NIL 101 G_101    0.000
2057 O4* 46.134 -63.079 -77.275 NIL 101 G_101    0.000
2058 C1* 47.262 -63.931 -77.262 NIL 101 G_101    0.000
2059 N9 48.116 -63.456 -76.138 NIL 101 G_101    0.000
2060 C8 47.999 -63.708 -74.789 NIL 101 G_101    0.000
2061 N7 48.923 -63.135 -74.057 NIL 101 G_101    0.000
2062 C5 49.709 -62.455 -74.986 NIL 101 G_101    0.000
2063 C6 50.861 -61.651 -74.795 NIL 101 G_101    0.000
2064 O6 51.438 -61.369 -73.748 NIL 101 G_101    0.000
2065 N1 51.345 -61.152 -76.013 NIL 101 G_101    0.000
2066 C2 50.788 -61.398 -77.252 NIL 101 G_101    0.000
2067 N2 51.401 -60.830 -78.293 NIL 101 G_101    0.000
2068 N3 49.706 -62.153 -77.431 NIL 101 G_101    0.000
2069 C4 49.224 -62.645 -76.260 NIL 101 G_101    0.000
2070 C3* 45.328 -65.234 -77.699 NIL 101 G_101    0.000
2071 C2* 46.715 -65.340 -77.064 NIL 101 G_101    0.000
2072 O3* 45.437 -65.436 -79.102 NIL 101 G_101    0.000
2073 P 59.784 -57.181 -75.337 NIL 102 C_102    0.000
2074 O1P 61.077 -56.570 -75.721 NIL 102 C_102    0.000
2075 O2P 59.099 -56.624 -74.150 NIL 102 C_102    0.000
2076 O5* 58.875 -57.113 -76.652 NIL 102 C_102    0.000
2077 C5* 59.135 -58.031 -77.728 NIL 102 C_102    0.000
2078 C4* 58.159 -57.789 -78.864 NIL 102 C_102    0.000
2079 O4* 56.987 -58.523 -78.515 NIL 102 C_102    0.000
2080 C1* 55.901 -57.679 -78.192 NIL 102 C_102    0.000
2081 N1 55.343 -58.206 -76.916 NIL 102 C_102    0.000
2082 C6 55.920 -57.906 -75.722 NIL 102 C_102    0.000
2083 C5 55.413 -58.386 -74.558 NIL 102 C_102    0.000
2084 C4 54.248 -59.216 -74.653 NIL 102 C_102    0.000
2085 N4 53.700 -59.718 -73.557 NIL 102 C_102    0.000
2086 N3 53.688 -59.505 -75.834 NIL 102 C_102    0.000
2087 C2 54.212 -59.015 -76.986 NIL 102 C_102    0.000
2088 O2 53.722 -59.260 -78.096 NIL 102 C_102    0.000
2089 C3* 57.677 -56.348 -79.030 NIL 102 C_102    0.000
2090 C2* 56.488 -56.276 -78.073 NIL 102 C_102    0.000
2091 O3* 57.232 -56.086 -80.354 NIL 102 C_102    0.000
2092 P 46.388 -66.230 -79.027 NIL 103 G_103    0.000
2093 O1P 45.250 -66.549 -79.917 NIL 103 G_103    0.000
2094 O2P 46.815 -67.277 -78.072 NIL 103 G_103    0.000
2095 O5* 47.574 -65.775 -79.999 NIL 103 G_103    0.000
2096 C5* 47.517 -64.471 -80.605 NIL 103 G_103    0.000
2097 C4* 48.736 -64.253 -81.481 NIL 103 G_103    0.000
2098 O4* 49.759 -63.801 -80.597 NIL 103 G_103    0.000
2099 C1* 50.786 -64.757 -80.430 NIL 103 G_103    0.000
2100 N9 51.012 -64.859 -78.962 NIL 103 G_103    0.000
2101 C8 50.299 -65.564 -78.017 NIL 103 G_103    0.000
2102 N7 50.763 -65.442 -76.798 NIL 103 G_103    0.000
2103 C5 51.862 -64.597 -76.943 NIL 103 G_103    0.000
2104 C6 52.768 -64.100 -75.972 NIL 103 G_103    0.000
2105 O6 52.790 -64.308 -74.762 NIL 103 G_103    0.000
2106 N1 53.738 -63.270 -76.553 NIL 103 G_103    0.000
2107 C2 53.820 -62.961 -77.897 NIL 103 G_103    0.000
2108 N2 54.820 -62.151 -78.252 NIL 103 G_103    0.000
2109 N3 52.968 -63.428 -78.808 NIL 103 G_103    0.000
2110 C4 52.022 -64.235 -78.261 NIL 103 G_103    0.000
2111 C3* 49.317 -65.506 -82.136 NIL 103 G_103    0.000
2112 C2* 50.261 -66.043 -81.061 NIL 103 G_103    0.000
2113 O3* 50.064 -65.197 -83.305 NIL 103 G_103    0.000
2114 P 60.777 -61.130 -70.781 NIL 104 C_104    0.000
2115 O1P 62.078 -60.622 -70.292 NIL 104 C_104    0.000
2116 O2P 59.604 -60.949 -69.898 NIL 104 C_104    0.000
2117 O5* 60.569 -60.453 -72.215 NIL 104 C_104    0.000
2118 C5* 61.326 -60.943 -73.335 NIL 104 C_104    0.000
2119 C4* 60.971 -60.161 -74.585 NIL 104 C_104    0.000
2120 O4* 59.798 -60.787 -75.100 NIL 104 C_104    0.000
2121 C1* 58.654 -59.966 -74.979 NIL 104 C_104    0.000
2122 N1 57.593 -60.832 -74.393 NIL 104 C_104    0.000
2123 C6 57.548 -61.078 -73.056 NIL 104 C_104    0.000
2124 C5 56.582 -61.867 -72.521 NIL 104 C_104    0.000
2125 C4 55.622 -62.421 -73.430 NIL 104 C_104    0.000
2126 N4 54.651 -63.200 -72.977 NIL 104 C_104    0.000
2127 N3 55.675 -62.172 -74.744 NIL 104 C_104    0.000
2128 C2 56.651 -61.380 -75.259 NIL 104 C_104    0.000
2129 O2 56.734 -61.128 -76.468 NIL 104 C_104    0.000
2130 C3* 60.566 -58.703 -74.364 NIL 104 C_104    0.000
2131 C2* 59.069 -58.808 -74.077 NIL 104 C_104    0.000
2132 O3* 60.767 -57.914 -75.528 NIL 104 C_104    0.000
2133 P 50.903 -66.097 -83.143 NIL 105 G_105    0.000
2134 O1P 50.312 -65.895 -84.485 NIL 105 G_105    0.000
2135 O2P 50.884 -67.471 -82.594 NIL 105 G_105    0.000
2136 O5* 52.385 -65.501 -83.237 NIL 105 G_105    0.000
2137 C5* 52.564 -64.074 -83.242 NIL 105 G_105    0.000
2138 C4* 54.040 -63.736 -83.337 NIL 105 G_105    0.000
2139 O4* 54.526 -63.797 -81.998 NIL 105 G_105    0.000
2140 C1* 55.398 -64.890 -81.792 NIL 105 G_105    0.000
2141 N9 54.929 -65.552 -80.543 NIL 105 G_105    0.000
2142 C8 53.890 -66.438 -80.364 NIL 105 G_105    0.000
2143 N7 53.739 -66.840 -79.125 NIL 105 G_105    0.000
2144 C5 54.750 -66.174 -78.435 NIL 105 G_105    0.000
2145 C6 55.092 -66.208 -77.058 NIL 105 G_105    0.000
2146 O6 54.564 -66.843 -76.150 NIL 105 G_105    0.000
2147 N1 56.188 -65.378 -76.783 NIL 105 G_105    0.000
2148 C2 56.865 -64.617 -77.716 NIL 105 G_105    0.000
2149 N2 57.886 -63.893 -77.251 NIL 105 G_105    0.000
2150 N3 56.543 -64.586 -79.007 NIL 105 G_105    0.000
2151 C4 55.483 -65.385 -79.292 NIL 105 G_105    0.000
2152 C3* 54.902 -64.737 -84.107 NIL 105 G_105    0.000
2153 C2* 55.268 -65.763 -83.036 NIL 105 G_105    0.000
2154 O3* 56.089 -64.138 -84.609 NIL 105 G_105    0.000
2155 P 59.717 -66.569 -68.206 NIL 106 C_106    0.000
2156 O1P 60.630 -66.476 -67.044 NIL 106 C_106    0.000
2157 O2P 58.264 -66.549 -67.928 NIL 106 C_106    0.000
2158 O5* 60.164 -65.393 -69.193 NIL 106 C_106    0.000
2159 C5* 61.368 -65.549 -69.964 NIL 106 C_106    0.000
2160 C4* 61.596 -64.321 -70.825 NIL 106 C_106    0.000
2161 O4* 60.813 -64.533 -71.998 NIL 106 C_106    0.000
2162 C1* 59.712 -63.652 -72.074 NIL 106 C_106    0.000
2163 N1 58.533 -64.502 -72.400 NIL 106 C_106    0.000
2164 C6 57.890 -65.208 -71.432 NIL 106 C_106    0.000
2165 C5 56.815 -65.984 -71.728 NIL 106 C_106    0.000
2166 C4 56.400 -66.018 -73.099 NIL 106 C_106    0.000
2167 N4 55.359 -66.754 -73.459 NIL 106 C_106    0.000
2168 N3 57.040 -65.319 -74.044 NIL 106 C_106    0.000
2169 C2 58.113 -64.550 -73.726 NIL 106 C_106    0.000
2170 O2 58.731 -63.890 -74.572 NIL 106 C_106    0.000
2171 C3* 61.082 -63.002 -70.250 NIL 106 C_106    0.000
2172 C2* 59.624 -62.978 -70.709 NIL 106 C_106    0.000
2173 O3* 61.765 -61.882 -70.797 NIL 106 C_106    0.000
2174 P 56.793 -65.150 -84.466 NIL 107 G_107    0.000
2175 O1P 56.875 -64.387 -85.732 NIL 107 G_107    0.000
2176 O2P 56.575 -66.610 -84.568 NIL 107 G_107    0.000
2177 O5* 58.131 -64.790 -83.665 NIL 107 G_107    0.000
2178 C5* 58.239 -63.504 -83.031 NIL 107 G_107    0.000
2179 C4* 59.581 -63.380 -82.335 NIL 107 G_107    0.000
2180 O4* 59.402 -63.996 -81.062 NIL 107 G_107    0.000
2181 C1* 60.122 -65.206 -80.945 NIL 107 G_107    0.000
2182 N9 59.158 -66.200 -80.395 NIL 107 G_107    0.000
2183 C8 58.186 -66.924 -81.049 NIL 107 G_107    0.000
2184 N7 57.499 -67.722 -80.269 NIL 107 G_107    0.000
2185 C5 58.056 -67.513 -79.008 NIL 107 G_107    0.000
2186 C6 57.730 -68.097 -77.756 NIL 107 G_107    0.000
2187 O6 56.869 -68.933 -77.498 NIL 107 G_107    0.000
2188 N1 58.548 -67.599 -76.732 NIL 107 G_107    0.000
2189 C2 59.548 -66.661 -76.895 NIL 107 G_107    0.000
2190 N2 60.215 -66.318 -75.791 NIL 107 G_107    0.000
2191 N3 59.853 -66.114 -78.070 NIL 107 G_107    0.000
2192 C4 59.070 -66.586 -79.075 NIL 107 G_107    0.000
2193 C3* 60.736 -64.148 -82.977 NIL 107 G_107    0.000
2194 C2* 60.608 -65.536 -82.352 NIL 107 G_107    0.000
2195 O3* 61.999 -63.592 -82.634 NIL 107 G_107    0.000
2196 P 57.797 -72.349 -68.711 NIL 108 C_108    0.000
2197 O1P 58.072 -72.823 -67.336 NIL 108 C_108    0.000
2198 O2P 56.378 -72.213 -69.110 NIL 108 C_108    0.000
2199 O5* 58.603 -70.974 -68.856 NIL 108 C_108    0.000
2200 C5* 60.031 -71.017 -69.020 NIL 108 C_108    0.000
2201 C4* 60.583 -69.609 -69.137 NIL 108 C_108    0.000
2202 O4* 60.432 -69.259 -70.511 NIL 108 C_108    0.000
2203 C1* 59.457 -68.256 -70.706 NIL 108 C_108    0.000
2204 N1 58.590 -68.743 -71.815 NIL 108 C_108    0.000
2205 C6 57.601 -69.648 -71.587 NIL 108 C_108    0.000
2206 C5 56.812 -70.092 -72.598 NIL 108 C_108    0.000
2207 C4 57.071 -69.562 -73.904 NIL 108 C_108    0.000
2208 N4 56.339 -69.951 -74.937 NIL 108 C_108    0.000
2209 N3 58.047 -68.670 -74.117 NIL 108 C_108    0.000
2210 C2 58.826 -68.240 -73.092 NIL 108 C_108    0.000
2211 O2 59.738 -67.418 -73.250 NIL 108 C_108    0.000
2212 C3* 59.813 -68.529 -68.376 NIL 108 C_108    0.000
2213 C2* 58.728 -68.122 -69.373 NIL 108 C_108    0.000
2214 O3* 60.629 -67.403 -68.084 NIL 108 C_108    0.000
2215 P 62.596 -64.680 -82.608 NIL 109 G_109    0.000
2216 O1P 63.220 -63.530 -83.300 NIL 109 G_109    0.000
2217 O2P 62.503 -65.952 -83.359 NIL 109 G_109    0.000
2218 O5* 63.404 -64.842 -81.237 NIL 109 G_109    0.000
2219 C5* 63.162 -63.906 -80.171 NIL 109 G_109    0.000
2220 C4* 64.031 -64.248 -78.975 NIL 109 G_109    0.000
2221 O4* 63.311 -65.251 -78.262 NIL 109 G_109    0.000
2222 C1* 63.941 -66.513 -78.329 NIL 109 G_109    0.000
2223 N9 62.871 -67.483 -78.693 NIL 109 G_109    0.000
2224 C8 62.333 -67.764 -79.929 NIL 109 G_109    0.000
2225 N7 61.395 -68.680 -79.908 NIL 109 G_109    0.000
2226 C5 61.305 -69.031 -78.562 NIL 109 G_109    0.000
2227 C6 60.463 -69.974 -77.918 NIL 109 G_109    0.000
2228 O6 59.611 -70.708 -78.410 NIL 109 G_109    0.000
2229 N1 60.702 -70.013 -76.536 NIL 109 G_109    0.000
2230 C2 61.630 -69.240 -75.866 NIL 109 G_109    0.000
2231 N2 61.704 -69.427 -74.546 NIL 109 G_109    0.000
2232 N3 62.419 -68.356 -76.472 NIL 109 G_109    0.000
2233 C4 62.202 -68.306 -77.812 NIL 109 G_109    0.000
2234 C3* 65.379 -64.892 -79.295 NIL 109 G_109    0.000
2235 C2* 65.030 -66.377 -79.389 NIL 109 G_109    0.000
2236 O3* 66.322 -64.696 -78.250 NIL 109 G_109    0.000
2237 P 56.536 -77.188 -72.223 NIL 110 C_110    0.000
2238 O1P 56.168 -78.166 -71.175 NIL 110 C_110    0.000
2239 O2P 55.454 -76.706 -73.109 NIL 110 C_110    0.000
2240 O5* 57.267 -75.993 -71.451 NIL 110 C_110    0.000
2241 C5* 58.613 -76.187 -70.980 NIL 110 C_110    0.000
2242 C4* 59.104 -74.932 -70.283 NIL 110 C_110    0.000
2243 O4* 59.587 -74.088 -71.325 NIL 110 C_110    0.000
2244 C1* 58.773 -72.949 -71.513 NIL 110 C_110    0.000
2245 N1 58.529 -72.861 -72.980 NIL 110 C_110    0.000
2246 C6 57.580 -73.629 -73.580 NIL 110 C_110    0.000
2247 C5 57.358 -73.550 -74.917 NIL 110 C_110    0.000
2248 C4 58.168 -72.626 -75.655 NIL 110 C_110    0.000
2249 N4 58.004 -72.497 -76.963 NIL 110 C_110    0.000
2250 N3 59.099 -71.875 -75.054 NIL 110 C_110    0.000
2251 C2 59.305 -71.969 -73.716 NIL 110 C_110    0.000
2252 O2 60.157 -71.293 -73.125 NIL 110 C_110    0.000
2253 C3* 58.033 -74.102 -69.577 NIL 110 C_110    0.000
2254 C2* 57.510 -73.202 -70.696 NIL 110 C_110    0.000
2255 O3* 58.582 -73.295 -68.543 NIL 110 C_110    0.000
2256 P 66.881 -65.794 -78.397 NIL 111 G_111    0.000
2257 O1P 67.710 -64.579 -78.235 NIL 111 G_111    0.000
2258 O2P 67.189 -66.676 -79.545 NIL 111 G_111    0.000
2259 O5* 66.977 -66.564 -76.998 NIL 111 G_111    0.000
2260 C5* 66.239 -66.056 -75.872 NIL 111 G_111    0.000
2261 C4* 66.475 -66.936 -74.658 NIL 111 G_111    0.000
2262 O4* 65.546 -68.010 -74.787 NIL 111 G_111    0.000
2263 C1* 66.184 -69.240 -75.062 NIL 111 G_111    0.000
2264 N9 65.435 -69.839 -76.203 NIL 111 G_111    0.000
2265 C8 65.534 -69.566 -77.549 NIL 111 G_111    0.000
2266 N7 64.725 -70.275 -78.298 NIL 111 G_111    0.000
2267 C5 64.041 -71.074 -77.384 NIL 111 G_111    0.000
2268 C6 63.034 -72.050 -77.597 NIL 111 G_111    0.000
2269 O6 62.530 -72.418 -78.655 NIL 111 G_111    0.000
2270 N1 62.614 -72.625 -76.389 NIL 111 G_111    0.000
2271 C2 63.103 -72.298 -75.139 NIL 111 G_111    0.000
2272 N2 62.572 -72.962 -74.110 NIL 111 G_111    0.000
2273 N3 64.049 -71.382 -74.940 NIL 111 G_111    0.000
2274 C4 64.468 -70.816 -76.101 NIL 111 G_111    0.000
2275 C3* 67.843 -67.613 -74.585 NIL 111 G_111    0.000
2276 C2* 67.631 -68.892 -75.395 NIL 111 G_111    0.000
2277 O3* 68.195 -67.955 -73.251 NIL 111 G_111    0.000
2278 P 57.203 -80.168 -77.516 NIL 112 C_112    0.000
2279 O1P 56.432 -81.394 -77.210 NIL 112 C_112    0.000
2280 O2P 56.630 -79.239 -78.516 NIL 112 C_112    0.000
2281 O5* 57.455 -79.460 -76.104 NIL 112 C_112    0.000
2282 C5* 58.441 -80.011 -75.214 NIL 112 C_112    0.000
2283 C4* 58.512 -79.186 -73.942 NIL 112 C_112    0.000
2284 O4* 59.387 -78.102 -74.247 NIL 112 C_112    0.000
2285 C1* 58.709 -76.865 -74.306 NIL 112 C_112    0.000
2286 N1 59.161 -76.213 -75.567 NIL 112 C_112    0.000
2287 C6 58.621 -76.558 -76.767 NIL 112 C_112    0.000
2288 C5 59.033 -75.965 -77.916 NIL 112 C_112    0.000
2289 C4 60.056 -74.968 -77.800 NIL 112 C_112    0.000
2290 N4 60.506 -74.348 -78.881 NIL 112 C_112    0.000
2291 N3 60.581 -74.636 -76.614 NIL 112 C_112    0.000
2292 C2 60.154 -75.242 -75.476 NIL 112 C_112    0.000
2293 O2 60.616 -74.963 -74.362 NIL 112 C_112    0.000
2294 C3* 57.207 -78.519 -73.510 NIL 112 C_112    0.000
2295 C2* 57.222 -77.206 -74.291 NIL 112 C_112    0.000
2296 O3* 57.191 -78.237 -72.117 NIL 112 C_112    0.000
2297 P 34.978 61.115 -89.500 NIL 113 G_113    0.000
2298 O1P 35.325 60.238 -88.360 NIL 113 G_113    0.000
2299 O2P 35.818 62.315 -89.711 NIL 113 G_113    0.000
2300 O5* 34.953 60.158 -90.781 NIL 113 G_113    0.000
2301 C5* 33.840 59.266 -90.964 NIL 113 G_113    0.000
2302 C4* 34.024 58.459 -92.235 NIL 113 G_113    0.000
2303 O4* 33.533 59.292 -93.283 NIL 113 G_113    0.000
2304 C1* 34.565 59.751 -94.131 NIL 113 G_113    0.000
2305 N9 34.346 61.217 -94.281 NIL 113 G_113    0.000
2306 C8 34.688 62.241 -93.425 NIL 113 G_113    0.000
2307 N7 34.350 63.432 -93.856 NIL 113 G_113    0.000
2308 C5 33.739 63.180 -95.083 NIL 113 G_113    0.000
2309 C6 33.167 64.078 -96.021 NIL 113 G_113    0.000
2310 O6 33.081 65.301 -95.961 NIL 113 G_113    0.000
2311 N1 32.657 63.397 -97.136 NIL 113 G_113    0.000
2312 C2 32.695 62.028 -97.319 NIL 113 G_113    0.000
2313 N2 32.154 61.574 -98.452 NIL 113 G_113    0.000
2314 N3 33.232 61.187 -96.439 NIL 113 G_113    0.000
2315 C4 33.732 61.830 -95.352 NIL 113 G_113    0.000
2316 C3* 35.470 58.157 -92.626 NIL 113 G_113    0.000
2317 C2* 35.870 59.396 -93.427 NIL 113 G_113    0.000
2318 O3* 35.566 57.008 -93.458 NIL 113 G_113    0.000
2319 P 36.517 57.437 -94.131 NIL 114 G_114    0.000
2320 O1P 36.556 56.044 -93.633 NIL 114 G_114    0.000
2321 O2P 37.701 58.285 -93.864 NIL 114 G_114    0.000
2322 O5* 36.193 57.322 -95.693 NIL 114 G_114    0.000
2323 C5* 34.852 57.003 -96.105 NIL 114 G_114    0.000
2324 C4* 34.774 56.946 -97.619 NIL 114 G_114    0.000
2325 O4* 34.585 58.296 -98.036 NIL 114 G_114    0.000
2326 C1* 35.715 58.814 -98.707 NIL 114 G_114    0.000
2327 N9 35.981 60.143 -98.088 NIL 114 G_114    0.000
2328 C8 36.631 60.441 -96.910 NIL 114 G_114    0.000
2329 N7 36.697 61.723 -96.647 NIL 114 G_114    0.000
2330 C5 36.046 62.317 -97.727 NIL 114 G_114    0.000
2331 C6 35.800 63.687 -98.005 NIL 114 G_114    0.000
2332 O6 36.112 64.674 -97.346 NIL 114 G_114    0.000
2333 N1 35.104 63.846 -99.212 NIL 114 G_114    0.000
2334 C2 34.699 62.818 -100.041 NIL 114 G_114    0.000
2335 N2 34.048 63.181 -101.148 NIL 114 G_114    0.000
2336 N3 34.931 61.534 -99.779 NIL 114 G_114    0.000
2337 C4 35.605 61.361 -98.612 NIL 114 G_114    0.000
2338 C3* 36.048 56.495 -98.333 NIL 114 G_114    0.000
2339 C2* 36.831 57.799 -98.483 NIL 114 G_114    0.000
2340 O3* 35.773 55.961 -99.621 NIL 114 G_114    0.000
2341 P 36.816 56.387 -100.143 NIL 115 G_115    0.000
2342 O1P 36.400 54.990 -100.399 NIL 115 G_115    0.000
2343 O2P 38.208 56.607 -99.691 NIL 115 G_115    0.000
2344 O5* 36.482 57.183 -101.490 NIL 115 G_115    0.000
2345 C5* 35.112 57.511 -101.784 NIL 115 G_115    0.000
2346 C4* 35.029 58.261 -103.100 NIL 115 G_115    0.000
2347 O4* 35.288 59.624 -102.773 NIL 115 G_115    0.000
2348 C1* 36.530 60.071 -103.278 NIL 115 G_115    0.000
2349 N9 37.206 60.759 -102.143 NIL 115 G_115    0.000
2350 C8 37.910 60.216 -101.091 NIL 115 G_115    0.000
2351 N7 38.385 61.105 -100.252 NIL 115 G_115    0.000
2352 C5 37.967 62.323 -100.787 NIL 115 G_115    0.000
2353 C6 38.178 63.646 -100.321 NIL 115 G_115    0.000
2354 O6 38.788 64.023 -99.325 NIL 115 G_115    0.000
2355 N1 37.579 64.588 -101.169 NIL 115 G_115    0.000
2356 C2 36.869 64.290 -102.316 NIL 115 G_115    0.000
2357 N2 36.376 65.334 -102.987 NIL 115 G_115    0.000
2358 N3 36.672 63.048 -102.752 NIL 115 G_115    0.000
2359 C4 37.247 62.122 -101.942 NIL 115 G_115    0.000
2360 C3* 36.094 57.902 -104.137 NIL 115 G_115    0.000
2361 C2* 37.257 58.819 -103.757 NIL 115 G_115    0.000
2362 O3* 35.670 58.205 -105.459 NIL 115 G_115    0.000
2363 P 36.797 58.525 -105.868 NIL 116 G_116    0.000
2364 O1P 35.954 57.638 -106.699 NIL 116 G_116    0.000
2365 O2P 38.183 58.083 -105.595 NIL 116 G_116    0.000
2366 O5* 36.746 59.955 -106.584 NIL 116 G_116    0.000
2367 C5* 35.557 60.755 -106.459 NIL 116 G_116    0.000
2368 C4* 35.729 62.061 -107.212 NIL 116 G_116    0.000
2369 O4* 36.412 62.928 -106.310 NIL 116 G_116    0.000
2370 C1* 37.735 63.201 -106.726 NIL 116 G_116    0.000
2371 N9 38.590 62.990 -105.525 NIL 116 G_116    0.000
2372 C8 39.074 61.814 -104.996 NIL 116 G_116    0.000
2373 N7 39.805 61.974 -103.920 NIL 116 G_116    0.000
2374 C5 39.806 63.353 -103.721 NIL 116 G_116    0.000
2375 C6 40.430 64.131 -102.711 NIL 116 G_116    0.000
2376 O6 41.123 63.757 -101.770 NIL 116 G_116    0.000
2377 N1 40.172 65.498 -102.887 NIL 116 G_116    0.000
2378 C2 39.411 66.042 -103.903 NIL 116 G_116    0.000
2379 N2 39.286 67.371 -103.894 NIL 116 G_116    0.000
2380 N3 38.826 65.311 -104.850 NIL 116 G_116    0.000
2381 C4 39.066 63.983 -104.696 NIL 116 G_116    0.000
2382 C3* 36.628 62.001 -108.447 NIL 116 G_116    0.000
2383 C2* 38.022 62.226 -107.862 NIL 116 G_116    0.000
2384 O3* 36.332 63.042 -109.369 NIL 116 G_116    0.000
2385 P 37.505 63.195 -109.744 NIL 117 G_117    0.000
2386 O1P 36.426 63.136 -110.755 NIL 117 G_117    0.000
2387 O2P 38.672 62.308 -109.947 NIL 117 G_117    0.000
2388 O5* 37.922 64.737 -109.657 NIL 117 G_117    0.000
2389 C5* 37.055 65.657 -108.971 NIL 117 G_117    0.000
2390 C4* 37.643 67.054 -109.011 NIL 117 G_117    0.000
2391 O4* 38.564 67.106 -107.924 NIL 117 G_117    0.000
2392 C1* 39.906 67.170 -108.360 NIL 117 G_117    0.000
2393 N9 40.640 66.144 -107.567 NIL 117 G_117    0.000
2394 C8 40.716 64.783 -107.762 NIL 117 G_117    0.000
2395 N7 41.453 64.157 -106.877 NIL 117 G_117    0.000
2396 C5 41.897 65.176 -106.035 NIL 117 G_117    0.000
2397 C6 42.732 65.116 -104.890 NIL 117 G_117    0.000
2398 O6 43.262 64.137 -104.373 NIL 117 G_117    0.000
2399 N1 42.930 66.389 -104.335 NIL 117 G_117    0.000
2400 C2 42.392 67.564 -104.822 NIL 117 G_117    0.000
2401 N2 42.702 68.674 -104.149 NIL 117 G_117    0.000
2402 N3 41.609 67.618 -105.897 NIL 117 G_117    0.000
2403 C4 41.407 66.393 -106.449 NIL 117 G_117    0.000
2404 C3* 38.482 67.386 -110.245 NIL 117 G_117    0.000
2405 C2* 39.871 66.878 -109.856 NIL 117 G_117    0.000
2406 O3* 38.544 68.786 -110.484 NIL 117 G_117    0.000
2407 P 39.706 68.774 -110.920 NIL 118 G_118    0.000
2408 O1P 38.672 69.545 -111.644 NIL 118 G_118    0.000
2409 O2P 40.526 67.830 -111.712 NIL 118 G_118    0.000
2410 O5* 40.598 69.865 -110.162 NIL 118 G_118    0.000
2411 C5* 40.069 70.503 -108.987 NIL 118 G_118    0.000
2412 C4* 41.078 71.494 -108.437 NIL 118 G_118    0.000
2413 O4* 41.959 70.722 -107.625 NIL 118 G_118    0.000
2414 C1* 43.253 70.621 -108.183 NIL 118 G_118    0.000
2415 N9 43.612 69.177 -108.118 NIL 118 G_118    0.000
2416 C8 43.245 68.149 -108.959 NIL 118 G_118    0.000
2417 N7 43.735 66.981 -108.620 NIL 118 G_118    0.000
2418 C5 44.479 67.254 -107.473 NIL 118 G_118    0.000
2419 C6 45.243 66.386 -106.651 NIL 118 G_118    0.000
2420 O6 45.425 65.177 -106.768 NIL 118 G_118    0.000
2421 N1 45.838 67.080 -105.588 NIL 118 G_118    0.000
2422 C2 45.711 68.435 -105.350 NIL 118 G_118    0.000
2423 N2 46.358 68.905 -104.282 NIL 118 G_118    0.000
2424 N3 44.994 69.248 -106.122 NIL 118 G_118    0.000
2425 C4 44.410 68.592 -107.158 NIL 118 G_118    0.000
2426 C3* 41.987 72.160 -109.470 NIL 118 G_118    0.000
2427 C2* 43.134 71.159 -109.605 NIL 118 G_118    0.000
2428 O3* 42.498 73.402 -109.005 NIL 118 G_118    0.000
2429 P 43.597 73.289 -109.572 NIL 119 G_119    0.000
2430 O1P 42.871 74.576 -109.654 NIL 119 G_119    0.000
2431 O2P 44.073 72.697 -110.842 NIL 119 G_119    0.000
2432 O5* 44.788 73.538 -108.533 NIL 119 G_119    0.000
2433 C5* 44.487 73.604 -107.129 NIL 119 G_119    0.000
2434 C4* 45.757 73.845 -106.336 NIL 119 G_119    0.000
2435 O4* 46.337 72.555 -106.154 NIL 119 G_119    0.000
2436 C1* 47.533 72.395 -106.890 NIL 119 G_119    0.000
2437 N9 47.406 71.088 -107.593 NIL 119 G_119    0.000
2438 C8 46.733 70.787 -108.756 NIL 119 G_119    0.000
2439 N7 46.817 69.528 -109.111 NIL 119 G_119    0.000
2440 C5 47.603 68.954 -108.112 NIL 119 G_119    0.000
2441 C6 48.041 67.614 -107.950 NIL 119 G_119    0.000
2442 O6 47.823 66.642 -108.667 NIL 119 G_119    0.000
2443 N1 48.821 67.467 -106.794 NIL 119 G_119    0.000
2444 C2 49.136 68.482 -105.911 NIL 119 G_119    0.000
2445 N2 49.894 68.136 -104.868 NIL 119 G_119    0.000
2446 N3 48.724 69.738 -106.065 NIL 119 G_119    0.000
2447 C4 47.967 69.899 -107.181 NIL 119 G_119    0.000
2448 C3* 46.839 74.659 -107.045 NIL 119 G_119    0.000
2449 C2* 47.603 73.594 -107.831 NIL 119 G_119    0.000
2450 O3* 47.721 75.286 -106.125 NIL 119 G_119    0.000
2451 P 48.728 75.177 -106.842 NIL 120 G_120    0.000
2452 O1P 48.457 76.468 -106.171 NIL 120 G_120    0.000
2453 O2P 48.995 75.212 -108.297 NIL 120 G_120    0.000
2454 O5* 49.929 74.514 -106.020 NIL 120 G_120    0.000
2455 C5* 49.656 73.933 -104.732 NIL 120 G_120    0.000
2456 C4* 50.932 73.367 -104.137 NIL 120 G_120    0.000
2457 O4* 51.063 72.064 -104.701 NIL 120 G_120    0.000
2458 C1* 52.148 71.976 -105.602 NIL 120 G_120    0.000
2459 N9 51.611 71.309 -106.820 NIL 120 G_120    0.000
2460 C8 50.883 71.848 -107.859 NIL 120 G_120    0.000
2461 N7 50.560 70.983 -108.789 NIL 120 G_120    0.000
2462 C5 51.112 69.786 -108.335 NIL 120 G_120    0.000
2463 C6 51.093 68.492 -108.917 NIL 120 G_120    0.000
2464 O6 50.577 68.130 -109.970 NIL 120 G_120    0.000
2465 N1 51.776 67.563 -108.120 NIL 120 G_120    0.000
2466 C2 52.396 67.847 -106.919 NIL 120 G_120    0.000
2467 N2 52.996 66.820 -106.312 NIL 120 G_120    0.000
2468 N3 52.413 69.061 -106.374 NIL 120 G_120    0.000
2469 C4 51.756 69.975 -107.134 NIL 120 G_120    0.000
2470 C3* 52.223 74.089 -104.524 NIL 120 G_120    0.000
2471 C2* 52.607 73.411 -105.839 NIL 120 G_120    0.000
2472 O3* 53.254 73.880 -103.569 NIL 120 G_120    0.000
2473 P -85.037 87.006 93.393 NIL 121 G_121    0.000
2474 O1P -85.697 85.683 93.465 NIL 121 G_121    0.000
2475 O2P -85.673 88.034 92.541 NIL 121 G_121    0.000
2476 O5* -84.883 87.486 94.912 NIL 121 G_121    0.000
2477 C5* -83.869 86.883 95.734 NIL 121 G_121    0.000
2478 C4* -83.903 87.486 97.126 NIL 121 G_121    0.000
2479 O4* -83.126 88.679 97.037 NIL 121 G_121    0.000
2480 C1* -83.916 89.844 97.158 NIL 121 G_121    0.000
2481 N9 -83.499 90.735 96.039 NIL 121 G_121    0.000
2482 C8 -83.875 90.702 94.714 NIL 121 G_121    0.000
2483 N7 -83.321 91.637 93.979 NIL 121 G_121    0.000
2484 C5 -82.523 92.338 94.882 NIL 121 G_121    0.000
2485 C6 -81.680 93.461 94.675 NIL 121 G_121    0.000
2486 O6 -81.462 94.079 93.637 NIL 121 G_121    0.000
2487 N1 -81.052 93.854 95.865 NIL 121 G_121    0.000
2488 C2 -81.216 93.243 97.093 NIL 121 G_121    0.000
2489 N2 -80.527 93.771 98.107 NIL 121 G_121    0.000
2490 N3 -82.007 92.190 97.285 NIL 121 G_121    0.000
2491 C4 -82.625 91.795 96.142 NIL 121 G_121    0.000
2492 C3* -85.274 87.953 97.614 NIL 121 G_121    0.000
2493 C2* -85.364 89.375 97.061 NIL 121 G_121    0.000
2494 O3* -85.345 87.995 99.033 NIL 121 G_121    0.000
2495 P -76.727 102.122 95.252 NIL 122 C_122    0.000
2496 O1P -76.019 103.362 95.643 NIL 122 C_122    0.000
2497 O2P -76.313 101.476 93.987 NIL 122 C_122    0.000
2498 O5* -76.590 101.141 96.508 NIL 122 C_122    0.000
2499 C5* -77.395 101.385 97.675 NIL 122 C_122    0.000
2500 C4* -77.104 100.339 98.734 NIL 122 C_122    0.000
2501 O4* -77.926 99.223 98.396 NIL 122 C_122    0.000
2502 C1* -77.171 98.118 97.945 NIL 122 C_122    0.000
2503 N1 -77.836 97.655 96.695 NIL 122 C_122    0.000
2504 C6 -77.613 98.281 95.508 NIL 122 C_122    0.000
2505 C5 -78.219 97.860 94.369 NIL 122 C_122    0.000
2506 C4 -79.096 96.733 94.481 NIL 122 C_122    0.000
2507 N4 -79.721 96.268 93.410 NIL 122 C_122    0.000
2508 N3 -79.309 96.123 95.654 NIL 122 C_122    0.000
2509 C2 -78.692 96.561 96.782 NIL 122 C_122    0.000
2510 O2 -78.864 96.024 97.884 NIL 122 C_122    0.000
2511 C3* -75.681 99.782 98.745 NIL 122 C_122    0.000
2512 C2* -75.755 98.644 97.728 NIL 122 C_122    0.000
2513 O3* -75.327 99.254 100.016 NIL 122 C_122    0.000
2514 P -86.093 88.985 99.078 NIL 123 G_123    0.000
2515 O1P -86.390 87.816 99.936 NIL 123 G_123    0.000
2516 O2P -87.196 89.511 98.244 NIL 123 G_123    0.000
2517 O5* -85.493 90.094 100.063 NIL 123 G_123    0.000
2518 C5* -84.146 89.943 100.544 NIL 123 G_123    0.000
2519 C4* -83.789 91.101 101.456 NIL 123 G_123    0.000
2520 O4* -83.364 92.148 100.586 NIL 123 G_123    0.000
2521 C1* -84.277 93.226 100.559 NIL 123 G_123    0.000
2522 N9 -84.496 93.536 99.118 NIL 123 G_123    0.000
2523 C8 -85.318 92.909 98.207 NIL 123 G_123    0.000
2524 N7 -85.281 93.432 97.006 NIL 123 G_123    0.000
2525 C5 -84.370 94.480 97.129 NIL 123 G_123    0.000
2526 C6 -83.915 95.414 96.163 NIL 123 G_123    0.000
2527 O6 -84.227 95.511 94.979 NIL 123 G_123    0.000
2528 N1 -82.988 96.310 96.714 NIL 123 G_123    0.000
2529 C2 -82.558 96.305 98.027 NIL 123 G_123    0.000
2530 N2 -81.670 97.245 98.356 NIL 123 G_123    0.000
2531 N3 -82.986 95.429 98.932 NIL 123 G_123    0.000
2532 C4 -83.885 94.552 98.415 NIL 123 G_123    0.000
2533 C3* -84.948 91.704 102.250 NIL 123 G_123    0.000
2534 C2* -85.528 92.729 101.276 NIL 123 G_123    0.000
2535 O3* -84.499 92.371 103.422 NIL 123 G_123    0.000
2536 P -81.006 103.544 91.128 NIL 124 C_124    0.000
2537 O1P -80.477 104.844 90.660 NIL 124 C_124    0.000
2538 O2P -80.964 102.412 90.175 NIL 124 C_124    0.000
2539 O5* -80.216 103.226 92.483 NIL 124 C_124    0.000
2540 C5* -80.567 103.945 93.679 NIL 124 C_124    0.000
2541 C4* -79.696 103.486 94.834 NIL 124 C_124    0.000
2542 O4* -80.334 102.318 95.344 NIL 124 C_124    0.000
2543 C1* -79.587 101.145 95.092 NIL 124 C_124    0.000
2544 N1 -80.555 100.159 94.535 NIL 124 C_124    0.000
2545 C6 -80.919 100.197 93.226 NIL 124 C_124    0.000
2546 C5 -81.802 99.299 92.718 NIL 124 C_124    0.000
2547 C4 -82.322 98.319 93.624 NIL 124 C_124    0.000
2548 N4 -83.187 97.411 93.196 NIL 124 C_124    0.000
2549 N3 -81.956 98.290 94.911 NIL 124 C_124    0.000
2550 C2 -81.073 99.198 95.399 NIL 124 C_124    0.000
2551 O2 -80.711 99.203 96.583 NIL 124 C_124    0.000
2552 C3* -78.287 103.026 94.461 NIL 124 C_124    0.000
2553 C2* -78.494 101.553 94.111 NIL 124 C_124    0.000
2554 O3* -77.389 103.127 95.558 NIL 124 C_124    0.000
2555 P -85.365 93.259 103.384 NIL 125 G_125    0.000
2556 O1P -85.076 92.587 104.671 NIL 125 G_125    0.000
2557 O2P -86.781 93.334 102.961 NIL 125 G_125    0.000
2558 O5* -84.688 94.704 103.497 NIL 125 G_125    0.000
2559 C5* -83.259 94.816 103.381 NIL 125 G_125    0.000
2560 C4* -82.838 96.267 103.519 NIL 125 G_125    0.000
2561 O4* -82.991 96.827 102.216 NIL 125 G_125    0.000
2562 C1* -84.052 97.759 102.154 NIL 125 G_125    0.000
2563 N9 -84.846 97.390 100.948 NIL 125 G_125    0.000
2564 C8 -85.796 96.404 100.799 NIL 125 G_125    0.000
2565 N7 -86.313 96.339 99.596 NIL 125 G_125    0.000
2566 C5 -85.659 97.354 98.899 NIL 125 G_125    0.000
2567 C6 -85.796 97.771 97.550 NIL 125 G_125    0.000
2568 O6 -86.536 97.324 96.678 NIL 125 G_125    0.000
2569 N1 -84.939 98.841 97.256 NIL 125 G_125    0.000
2570 C2 -84.064 99.430 98.148 NIL 125 G_125    0.000
2571 N2 -83.333 100.439 97.670 NIL 125 G_125    0.000
2572 N3 -83.937 99.038 99.413 NIL 125 G_125    0.000
2573 C4 -84.761 98.002 99.716 NIL 125 G_125    0.000
2574 C3* -83.721 97.132 104.418 NIL 125 G_125    0.000
2575 C2* -84.818 97.603 103.464 NIL 125 G_125    0.000
2576 O3* -83.020 98.261 104.922 NIL 125 G_125    0.000
2577 P -86.699 102.880 89.007 NIL 126 C_126    0.000
2578 O1P -86.661 103.849 87.889 NIL 126 C_126    0.000
2579 O2P -86.777 101.445 88.657 NIL 126 C_126    0.000
2580 O5* -85.418 103.218 89.905 NIL 126 C_126    0.000
2581 C5* -85.444 104.384 90.746 NIL 126 C_126    0.000
2582 C4* -84.134 104.508 91.502 NIL 126 C_126    0.000
2583 O4* -84.282 103.673 92.649 NIL 126 C_126    0.000
2584 C1* -83.455 102.529 92.590 NIL 126 C_126    0.000
2585 N1 -84.333 101.375 92.932 NIL 126 C_126    0.000
2586 C6 -85.154 100.819 92.002 NIL 126 C_126    0.000
2587 C5 -85.955 99.768 92.314 NIL 126 C_126    0.000
2588 C4 -85.890 99.281 93.660 NIL 126 C_126    0.000
2589 N4 -86.643 98.257 94.033 NIL 126 C_126    0.000
2590 N3 -85.078 99.836 94.568 NIL 126 C_126    0.000
2591 C2 -84.285 100.887 94.235 NIL 126 C_126    0.000
2592 O2 -83.522 101.427 95.047 NIL 126 C_126    0.000
2593 C3* -82.899 103.964 90.784 NIL 126 C_126    0.000
2594 C2* -82.910 102.484 91.167 NIL 126 C_126    0.000
2595 O3* -81.702 104.563 91.261 NIL 126 C_126    0.000
2596 P -84.004 99.018 104.906 NIL 127 G_127    0.000
2597 O1P -83.129 98.996 106.100 NIL 127 G_127    0.000
2598 O2P -85.458 98.864 105.130 NIL 127 G_127    0.000
2599 O5* -83.647 100.379 104.144 NIL 127 G_127    0.000
2600 C5* -82.418 100.461 103.402 NIL 127 G_127    0.000
2601 C4* -82.287 101.832 102.764 NIL 127 G_127    0.000
2602 O4* -83.021 101.750 101.545 NIL 127 G_127    0.000
2603 C1* -84.198 102.531 101.574 NIL 127 G_127    0.000
2604 N9 -85.286 101.647 101.070 NIL 127 G_127    0.000
2605 C8 -85.998 100.675 101.738 NIL 127 G_127    0.000
2606 N7 -86.896 100.069 101.000 NIL 127 G_127    0.000
2607 C5 -86.771 100.684 99.755 NIL 127 G_127    0.000
2608 C6 -87.478 100.453 98.547 NIL 127 G_127    0.000
2609 O6 -88.377 99.648 98.323 NIL 127 G_127    0.000
2610 N1 -87.031 101.301 97.523 NIL 127 G_127    0.000
2611 C2 -86.032 102.246 97.650 NIL 127 G_127    0.000
2612 N2 -85.754 102.955 96.554 NIL 127 G_127    0.000
2613 N3 -85.369 102.461 98.784 NIL 127 G_127    0.000
2614 C4 -85.790 101.648 99.788 NIL 127 G_127    0.000
2615 C3* -82.935 102.985 103.530 NIL 127 G_127    0.000
2616 C2* -84.378 102.956 103.028 NIL 127 G_127    0.000
2617 O3* -82.348 104.236 103.201 NIL 127 G_127    0.000
2618 P -92.502 101.208 89.939 NIL 128 C_128    0.000
2619 O1P -93.080 101.579 88.628 NIL 128 C_128    0.000
2620 O2P -92.404 99.765 90.253 NIL 128 C_128    0.000
2621 O5* -91.080 101.939 89.998 NIL 128 C_128    0.000
2622 C5* -91.035 103.357 90.236 NIL 128 C_128    0.000
2623 C4* -89.595 103.835 90.252 NIL 128 C_128    0.000
2624 O4* -89.134 103.595 91.580 NIL 128 C_128    0.000
2625 C1* -88.169 102.564 91.634 NIL 128 C_128    0.000
2626 N1 -88.600 101.662 92.739 NIL 128 C_128    0.000
2627 C6 -89.572 100.731 92.545 NIL 128 C_128    0.000
2628 C5 -89.965 99.909 93.552 NIL 128 C_128    0.000
2629 C4 -89.309 100.073 94.815 NIL 128 C_128    0.000
2630 N4 -89.642 99.305 95.841 NIL 128 C_128    0.000
2631 N3 -88.353 100.993 94.995 NIL 128 C_128    0.000
2632 C2 -87.975 101.806 93.975 NIL 128 C_128    0.000
2633 O2 -87.097 102.668 94.103 NIL 128 C_128    0.000
2634 C3* -88.628 103.059 89.359 NIL 128 C_128    0.000
2635 C2* -88.191 101.903 90.260 NIL 128 C_128    0.000
2636 O3* -87.491 103.836 89.007 NIL 128 C_128    0.000
2637 P -83.401 104.885 103.304 NIL 129 G_129    0.000
2638 O1P -82.164 105.416 103.918 NIL 129 G_129    0.000
2639 O2P -84.605 104.811 104.161 NIL 129 G_129    0.000
2640 O5* -83.641 105.772 101.995 NIL 129 G_129    0.000
2641 C5* -82.817 105.545 100.838 NIL 129 G_129    0.000
2642 C4* -83.217 106.492 99.722 NIL 129 G_129    0.000
2643 O4* -84.315 105.859 99.069 NIL 129 G_129    0.000
2644 C1* -85.533 106.544 99.281 NIL 129 G_129    0.000
2645 N9 -86.521 105.501 99.677 NIL 129 G_129    0.000
2646 C8 -86.719 104.911 100.906 NIL 129 G_129    0.000
2647 N7 -87.680 104.020 100.921 NIL 129 G_129    0.000
2648 C5 -88.152 104.019 99.610 NIL 129 G_129    0.000
2649 C6 -89.191 103.259 99.013 NIL 129 G_129    0.000
2650 O6 -89.921 102.417 99.527 NIL 129 G_129    0.000
2651 N1 -89.339 103.573 97.654 NIL 129 G_129    0.000
2652 C2 -88.582 104.499 96.964 NIL 129 G_129    0.000
2653 N2 -88.880 104.653 95.672 NIL 129 G_129    0.000
2654 N3 -87.608 105.212 97.525 NIL 129 G_129    0.000
2655 C4 -87.451 104.920 98.842 NIL 129 G_129    0.000
2656 C3* -83.761 107.850 100.166 NIL 129 G_129    0.000
2657 C2* -85.248 107.566 100.377 NIL 129 G_129    0.000
2658 O3* -83.609 108.838 99.156 NIL 129 G_129    0.000
2659 P -97.071 99.987 93.808 NIL 130 C_130    0.000
2660 O1P -98.156 99.722 92.836 NIL 130 C_130    0.000
2661 O2P -96.569 98.837 94.592 NIL 130 C_130    0.000
2662 O5* -95.913 100.702 92.968 NIL 130 C_130    0.000
2663 C5* -96.078 102.078 92.584 NIL 130 C_130    0.000
2664 C4* -94.866 102.548 91.801 NIL 130 C_130    0.000
2665 O4* -93.909 102.934 92.785 NIL 130 C_130    0.000
2666 C1* -92.801 102.058 92.829 NIL 130 C_130    0.000
2667 N1 -92.598 101.732 94.268 NIL 130 C_130    0.000
2668 C6 -93.357 100.788 94.887 NIL 130 C_130    0.000
2669 C5 -93.172 100.491 96.199 NIL 130 C_130    0.000
2670 C4 -92.146 101.215 96.889 NIL 130 C_130    0.000
2671 N4 -91.911 100.976 98.170 NIL 130 C_130    0.000
2672 N3 -91.404 102.142 96.270 NIL 130 C_130    0.000
2673 C2 -91.606 102.424 94.957 NIL 130 C_130    0.000
2674 O2 -90.941 103.274 94.351 NIL 130 C_130    0.000
2675 C3* -94.157 101.478 90.970 NIL 130 C_130    0.000
2676 C2* -93.190 100.855 91.976 NIL 130 C_130    0.000
2677 O3* -93.418 102.044 89.897 NIL 130 C_130    0.000
2678 P -84.661 109.439 99.429 NIL 131 G_131    0.000
2679 O1P -83.423 110.217 99.199 NIL 131 G_131    0.000
2680 O2P -85.421 109.725 100.666 NIL 131 G_131    0.000
2681 O5* -85.544 109.646 98.112 NIL 131 G_131    0.000
2682 C5* -85.177 108.947 96.909 NIL 131 G_131    0.000
2683 C4* -86.147 109.289 95.794 NIL 131 G_131    0.000
2684 O4* -87.251 108.406 95.973 NIL 131 G_131    0.000
2685 C1* -88.418 109.085 96.390 NIL 131 G_131    0.000
2686 N9 -88.952 108.304 97.542 NIL 131 G_131    0.000
2687 C8 -88.557 108.317 98.861 NIL 131 G_131    0.000
2688 N7 -89.237 107.503 99.630 NIL 131 G_131    0.000
2689 C5 -90.148 106.908 98.759 NIL 131 G_131    0.000
2690 C6 -91.152 105.937 99.010 NIL 131 G_131    0.000
2691 O6 -91.450 105.394 100.070 NIL 131 G_131    0.000
2692 N1 -91.852 105.611 97.839 NIL 131 G_131    0.000
2693 C2 -91.612 106.151 96.591 NIL 131 G_131    0.000
2694 N2 -92.391 105.707 95.602 NIL 131 G_131    0.000
2695 N3 -90.670 107.062 96.357 NIL 131 G_131    0.000
2696 C4 -89.982 107.390 97.482 NIL 131 G_131    0.000
2697 C3* -86.757 110.689 95.850 NIL 131 G_131    0.000
2698 C2* -87.968 110.494 96.761 NIL 131 G_131    0.000
2699 O3* -87.196 111.129 94.572 NIL 131 G_131    0.000
2700 P -99.534 100.506 99.376 NIL 132 C_132    0.000
2701 O1P -100.820 99.810 99.145 NIL 132 C_132    0.000
2702 O2P -98.552 99.836 100.258 NIL 132 C_132    0.000
2703 O5* -98.942 100.800 97.920 NIL 132 C_132    0.000
2704 C5* -99.518 101.858 97.133 NIL 132 C_132    0.000
2705 C4* -98.805 101.959 95.798 NIL 132 C_132    0.000
2706 O4* -97.656 102.764 96.045 NIL 132 C_132    0.000
2707 C1* -96.454 102.026 95.959 NIL 132 C_132    0.000
2708 N1 -95.672 102.379 97.176 NIL 132 C_132    0.000
2709 C6 -95.936 101.791 98.374 NIL 132 C_132    0.000
2710 C5 -95.224 102.113 99.484 NIL 132 C_132    0.000
2711 C4 -94.190 103.093 99.329 NIL 132 C_132    0.000
2712 N4 -93.455 103.454 100.370 NIL 132 C_132    0.000
2713 N3 -93.938 103.664 98.145 NIL 132 C_132    0.000
2714 C2 -94.662 103.329 97.047 NIL 132 C_132    0.000
2715 O2 -94.459 103.836 95.936 NIL 132 C_132    0.000
2716 C3* -98.248 100.648 95.242 NIL 132 C_132    0.000
2717 C2* -96.871 100.560 95.901 NIL 132 C_132    0.000
2718 O3* -98.090 100.695 93.830 NIL 132 C_132    0.000
2719 P -88.173 111.763 95.002 NIL 133 G_133    0.000
2720 O1P -87.297 112.387 93.984 NIL 133 G_133    0.000
2721 O2P -88.465 112.552 96.219 NIL 133 G_133    0.000
2722 O5* -89.502 111.342 94.217 NIL 133 G_133    0.000
2723 C5* -89.467 110.190 93.356 NIL 133 G_133    0.000
2724 C4* -90.828 109.977 92.720 NIL 133 G_133    0.000
2725 O4* -91.580 109.240 93.680 NIL 133 G_133    0.000
2726 C1* -92.625 110.006 94.246 NIL 133 G_133    0.000
2727 N9 -92.522 109.806 95.719 NIL 133 G_133    0.000
2728 C8 -91.681 110.414 96.624 NIL 133 G_133    0.000
2729 N7 -91.845 110.011 97.860 NIL 133 G_133    0.000
2730 C5 -92.869 109.069 97.768 NIL 133 G_133    0.000
2731 C6 -93.485 108.287 98.779 NIL 133 G_133    0.000
2732 O6 -93.252 108.266 99.985 NIL 133 G_133    0.000
2733 N1 -94.483 107.458 98.248 NIL 133 G_133    0.000
2734 C2 -94.838 107.392 96.914 NIL 133 G_133    0.000
2735 N2 -95.816 106.536 96.610 NIL 133 G_133    0.000
2736 N3 -94.258 108.126 95.967 NIL 133 G_133    0.000
2737 C4 -93.289 108.936 96.465 NIL 133 G_133    0.000
2738 C3* -91.650 111.242 92.471 NIL 133 G_133    0.000
2739 C2* -92.372 111.443 93.803 NIL 133 G_133    0.000
2740 O3* -92.610 111.056 91.440 NIL 133 G_133    0.000
2741 P -99.822 103.388 104.757 NIL 134 C_134    0.000
2742 O1P -100.929 102.632 105.385 NIL 134 C_134    0.000
2743 O2P -98.469 103.204 105.326 NIL 134 C_134    0.000
2744 O5* -99.883 103.018 103.202 NIL 134 C_134    0.000
2745 C5* -100.914 103.601 102.386 NIL 134 C_134    0.000
2746 C4* -100.781 103.115 100.955 NIL 134 C_134    0.000
2747 O4* -99.815 103.974 100.354 NIL 134 C_134    0.000
2748 C1* -98.605 103.303 100.068 NIL 134 C_134    0.000
2749 N1 -97.520 104.178 100.593 NIL 134 C_134    0.000
2750 C6 -97.197 104.179 101.913 NIL 134 C_134    0.000
2751 C5 -96.209 104.977 102.392 NIL 134 C_134    0.000
2752 C4 -95.532 105.810 101.443 NIL 134 C_134    0.000
2753 N4 -94.557 106.614 101.841 NIL 134 C_134    0.000
2754 N3 -95.858 105.801 100.145 NIL 134 C_134    0.000
2755 C2 -96.850 104.996 99.686 NIL 134 C_134    0.000
2756 O2 -97.180 104.961 98.494 NIL 134 C_134    0.000
2757 C3* -100.209 101.708 100.783 NIL 134 C_134    0.000
2758 C2* -98.701 101.955 100.775 NIL 134 C_134    0.000
2759 O3* -100.596 101.126 99.545 NIL 134 C_134    0.000
2760 P -93.468 111.792 91.953 NIL 135 G_135    0.000
2761 O1P -93.179 111.919 90.507 NIL 135 G_135    0.000
2762 O2P -93.448 113.033 92.759 NIL 135 G_135    0.000
2763 O5* -94.874 111.034 92.040 NIL 135 G_135    0.000
2764 C5* -94.922 109.621 91.776 NIL 135 G_135    0.000
2765 C4* -96.346 109.115 91.914 NIL 135 G_135    0.000
2766 O4* -96.521 108.864 93.307 NIL 135 G_135    0.000
2767 C1* -97.417 109.776 93.908 NIL 135 G_135    0.000
2768 N9 -96.741 110.255 95.145 NIL 135 G_135    0.000
2769 C8 -95.770 111.222 95.289 NIL 135 G_135    0.000
2770 N7 -95.381 111.407 96.527 NIL 135 G_135    0.000
2771 C5 -96.147 110.498 97.255 NIL 135 G_135    0.000
2772 C6 -96.171 110.233 98.649 NIL 135 G_135    0.000
2773 O6 -95.512 110.756 99.543 NIL 135 G_135    0.000
2774 N1 -97.100 109.231 98.963 NIL 135 G_135    0.000
2775 C2 -97.899 108.570 98.050 NIL 135 G_135    0.000
2776 N2 -98.720 107.646 98.552 NIL 135 G_135    0.000
2777 N3 -97.875 108.820 96.743 NIL 135 G_135    0.000
2778 C4 -96.981 109.790 96.421 NIL 135 G_135    0.000
2779 C3* -97.444 110.117 91.560 NIL 135 G_135    0.000
2780 C2* -97.649 110.872 92.873 NIL 135 G_135    0.000
2781 O3* -98.656 109.469 91.196 NIL 135 G_135    0.000
2782 P -98.697 108.354 108.135 NIL 136 C_136    0.000
2783 O1P -99.313 107.930 109.413 NIL 136 C_136    0.000
2784 O2P -97.223 108.475 108.101 NIL 136 C_136    0.000
2785 O5* -99.249 107.330 107.037 NIL 136 C_136    0.000
2786 C5* -100.605 107.465 106.576 NIL 136 C_136    0.000
2787 C4* -100.911 106.396 105.543 NIL 136 C_136    0.000
2788 O4* -100.434 106.921 104.306 NIL 136 C_136    0.000
2789 C1* -99.304 106.221 103.826 NIL 136 C_136    0.000
2790 N1 -98.309 107.265 103.452 NIL 136 C_136    0.000
2791 C6 -97.530 107.860 104.394 NIL 136 C_136    0.000
2792 C5 -96.623 108.812 104.053 NIL 136 C_136    0.000
2793 C4 -96.532 109.151 102.664 NIL 136 C_136    0.000
2794 N4 -95.668 110.071 102.260 NIL 136 C_136    0.000
2795 N3 -97.304 108.559 101.745 NIL 136 C_136    0.000
2796 C2 -98.205 107.610 102.107 NIL 136 C_136    0.000
2797 O2 -98.936 107.040 101.287 NIL 136 C_136    0.000
2798 C3* -100.165 105.073 105.716 NIL 136 C_136    0.000
2799 C2* -98.852 105.327 104.975 NIL 136 C_136    0.000
2800 O3* -100.851 103.993 105.099 NIL 136 C_136    0.000
2801 P -80.359 21.724 -11.627 NIL 137 G_137    0.000
2802 O1P -79.022 22.239 -11.999 NIL 137 G_137    0.000
2803 O2P -80.419 20.704 -10.557 NIL 137 G_137    0.000
2804 O5* -81.233 23.019 -11.282 NIL 137 G_137    0.000
2805 C5* -81.709 23.846 -12.359 NIL 137 G_137    0.000
2806 C4* -82.510 25.009 -11.804 NIL 137 G_137    0.000
2807 O4* -83.827 24.500 -11.608 NIL 137 G_137    0.000
2808 C1* -84.161 24.389 -10.240 NIL 137 G_137    0.000
2809 N9 -84.736 23.025 -10.071 NIL 137 G_137    0.000
2810 C8 -84.087 21.817 -9.938 NIL 137 G_137    0.000
2811 N7 -84.892 20.791 -9.806 NIL 137 G_137    0.000
2812 C5 -86.164 21.359 -9.855 NIL 137 G_137    0.000
2813 C6 -87.442 20.748 -9.765 NIL 137 G_137    0.000
2814 O6 -87.719 19.561 -9.620 NIL 137 G_137    0.000
2815 N1 -88.470 21.697 -9.863 NIL 137 G_137    0.000
2816 C2 -88.287 23.056 -10.026 NIL 137 G_137    0.000
2817 N2 -89.398 23.792 -10.096 NIL 137 G_137    0.000
2818 N3 -87.088 23.628 -10.110 NIL 137 G_137    0.000
2819 C4 -86.079 22.723 -10.017 NIL 137 G_137    0.000
2820 C3* -82.081 25.514 -10.427 NIL 137 G_137    0.000
2821 C2* -82.859 24.605 -9.476 NIL 137 G_137    0.000
2822 O3* -82.471 26.863 -10.211 NIL 137 G_137    0.000
2823 P -96.910 18.295 -7.711 NIL 138 C_138    0.000
2824 O1P -98.353 18.238 -7.387 NIL 138 C_138    0.000
2825 O2P -96.365 17.217 -8.565 NIL 138 C_138    0.000
2826 O5* -96.673 19.747 -8.340 NIL 138 C_138    0.000
2827 C5* -96.653 20.890 -7.466 NIL 138 C_138    0.000
2828 C4* -96.415 22.154 -8.271 NIL 138 C_138    0.000
2829 O4* -95.000 22.241 -8.424 NIL 138 C_138    0.000
2830 C1* -94.589 22.024 -9.758 NIL 138 C_138    0.000
2831 N1 -93.472 21.042 -9.685 NIL 138 C_138    0.000
2832 C6 -93.715 19.710 -9.552 NIL 138 C_138    0.000
2833 C5 -92.697 18.815 -9.485 NIL 138 C_138    0.000
2834 C4 -91.366 19.342 -9.561 NIL 138 C_138    0.000
2835 N4 -90.324 18.525 -9.502 NIL 138 C_138    0.000
2836 N3 -91.137 20.654 -9.692 NIL 138 C_138    0.000
2837 C2 -92.171 21.533 -9.757 NIL 138 C_138    0.000
2838 O2 -91.999 22.753 -9.877 NIL 138 C_138    0.000
2839 C3* -96.958 22.143 -9.700 NIL 138 C_138    0.000
2840 C2* -95.820 21.498 -10.490 NIL 138 C_138    0.000
2841 O3* -97.185 23.458 -10.191 NIL 138 C_138    0.000
2842 P -82.688 26.724 -8.997 NIL 139 G_139    0.000
2843 O1P -81.922 27.901 -9.462 NIL 139 G_139    0.000
2844 O2P -82.096 25.919 -7.905 NIL 139 G_139    0.000
2845 O5* -84.140 27.282 -8.621 NIL 139 G_139    0.000
2846 C5* -85.053 27.617 -9.681 NIL 139 G_139    0.000
2847 C4* -86.360 28.123 -9.099 NIL 139 G_139    0.000
2848 O4* -87.120 26.952 -8.810 NIL 139 G_139    0.000
2849 C1* -87.271 26.739 -7.421 NIL 139 G_139    0.000
2850 N9 -86.931 25.307 -7.190 NIL 139 G_139    0.000
2851 C8 -85.693 24.713 -7.075 NIL 139 G_139    0.000
2852 N7 -85.739 23.419 -6.873 NIL 139 G_139    0.000
2853 C5 -87.103 23.135 -6.852 NIL 139 G_139    0.000
2854 C6 -87.777 21.899 -6.670 NIL 139 G_139    0.000
2855 O6 -87.300 20.783 -6.485 NIL 139 G_139    0.000
2856 N1 -89.168 22.063 -6.719 NIL 139 G_139    0.000
2857 C2 -89.823 23.263 -6.920 NIL 139 G_139    0.000
2858 N2 -91.156 23.208 -6.933 NIL 139 G_139    0.000
2859 N3 -89.189 24.421 -7.091 NIL 139 G_139    0.000
2860 C4 -87.839 24.281 -7.045 NIL 139 G_139    0.000
2861 C3* -86.252 28.855 -7.761 NIL 139 G_139    0.000
2862 C2* -86.311 27.714 -6.746 NIL 139 G_139    0.000
2863 O3* -87.349 29.732 -7.546 NIL 139 G_139    0.000
2864 P -93.924 14.495 -3.971 NIL 140 C_140    0.000
2865 O1P -95.046 13.624 -3.555 NIL 140 C_140    0.000
2866 O2P -92.886 13.895 -4.837 NIL 140 C_140    0.000
2867 O5* -94.607 15.777 -4.641 NIL 140 C_140    0.000
2868 C5* -95.225 16.762 -3.793 NIL 140 C_140    0.000
2869 C4* -95.804 17.883 -4.635 NIL 140 C_140    0.000
2870 O4* -94.716 18.770 -4.879 NIL 140 C_140    0.000
2871 C1* -94.310 18.764 -6.232 NIL 140 C_140    0.000
2872 N1 -92.827 18.624 -6.212 NIL 140 C_140    0.000
2873 C6 -92.240 17.410 -6.038 NIL 140 C_140    0.000
2874 C5 -90.889 17.282 -6.019 NIL 140 C_140    0.000
2875 C4 -90.122 18.481 -6.189 NIL 140 C_140    0.000
2876 N4 -88.799 18.430 -6.181 NIL 140 C_140    0.000
2877 N3 -90.711 19.671 -6.359 NIL 140 C_140    0.000
2878 C2 -92.064 19.777 -6.375 NIL 140 C_140    0.000
2879 O2 -92.644 20.859 -6.529 NIL 140 C_140    0.000
2880 C3* -96.296 17.482 -6.026 NIL 140 C_140    0.000
2881 C2* -95.029 17.581 -6.874 NIL 140 C_140    0.000
2882 O3* -97.269 18.389 -6.526 NIL 140 C_140    0.000
2883 P -87.394 29.556 -6.319 NIL 141 G_141    0.000
2884 O1P -87.482 30.933 -6.854 NIL 141 G_141    0.000
2885 O2P -86.400 29.306 -5.252 NIL 141 G_141    0.000
2886 O5* -88.881 29.181 -5.862 NIL 141 G_141    0.000
2887 C5* -89.860 28.865 -6.868 NIL 141 G_141    0.000
2888 C4* -91.191 28.543 -6.213 NIL 141 G_141    0.000
2889 O4* -91.109 27.165 -5.854 NIL 141 G_141    0.000
2890 C1* -91.050 26.978 -4.455 NIL 141 G_141    0.000
2891 N9 -89.927 26.028 -4.219 NIL 141 G_141    0.000
2892 C8 -88.573 26.275 -4.172 NIL 141 G_141    0.000
2893 N7 -87.844 25.210 -3.943 NIL 141 G_141    0.000
2894 C5 -88.781 24.184 -3.830 NIL 141 G_141    0.000
2895 C6 -88.596 22.800 -3.582 NIL 141 G_141    0.000
2896 O6 -87.549 22.183 -3.406 NIL 141 G_141    0.000
2897 N1 -89.821 22.118 -3.546 NIL 141 G_141    0.000
2898 C2 -91.061 22.699 -3.727 NIL 141 G_141    0.000
2899 N2 -92.109 21.875 -3.654 NIL 141 G_141    0.000
2900 N3 -91.234 23.998 -3.959 NIL 141 G_141    0.000
2901 C4 -90.056 24.674 -3.997 NIL 141 G_141    0.000
2902 C3* -91.478 29.269 -4.899 NIL 141 G_141    0.000
2903 C2* -90.816 28.363 -3.861 NIL 141 G_141    0.000
2904 O3* -92.871 29.351 -4.632 NIL 141 G_141    0.000
2905 P -89.130 13.355 -0.357 NIL 142 C_142    0.000
2906 O1P -89.512 12.016 0.146 NIL 142 C_142    0.000
2907 O2P -87.973 13.428 -1.276 NIL 142 C_142    0.000
2908 O5* -90.461 13.960 -1.006 NIL 142 C_142    0.000
2909 C5* -91.503 14.442 -0.139 NIL 142 C_142    0.000
2910 C4* -92.662 14.968 -0.964 NIL 142 C_142    0.000
2911 O4* -92.311 16.310 -1.294 NIL 142 C_142    0.000
2912 C1* -92.033 16.470 -2.670 NIL 142 C_142    0.000
2913 N1 -90.750 17.223 -2.741 NIL 142 C_142    0.000
2914 C6 -89.556 16.590 -2.582 NIL 142 C_142    0.000
2915 C5 -88.387 17.276 -2.646 NIL 142 C_142    0.000
2916 C4 -88.475 18.686 -2.888 NIL 142 C_142    0.000
2917 N4 -87.373 19.417 -2.963 NIL 142 C_142    0.000
2918 N3 -89.655 19.298 -3.043 NIL 142 C_142    0.000
2919 C2 -90.814 18.594 -2.975 NIL 142 C_142    0.000
2920 O2 -91.923 19.125 -3.112 NIL 142 C_142    0.000
2921 C3* -92.883 14.283 -2.313 NIL 142 C_142    0.000
2922 C2* -91.949 15.058 -3.242 NIL 142 C_142    0.000
2923 O3* -94.222 14.425 -2.768 NIL 142 C_142    0.000
2924 P -92.755 29.247 -3.401 NIL 143 G_143    0.000
2925 O1P -93.654 30.284 -3.955 NIL 143 G_143    0.000
2926 O2P -91.760 29.681 -2.395 NIL 143 G_143    0.000
2927 O5* -93.721 28.100 -2.844 NIL 143 G_143    0.000
2928 C5* -94.369 27.219 -3.779 NIL 143 G_143    0.000
2929 C4* -95.231 26.217 -3.035 NIL 143 G_143    0.000
2930 O4* -94.344 25.167 -2.656 NIL 143 G_143    0.000
2931 C1* -94.130 25.123 -1.260 NIL 143 G_143    0.000
2932 N9 -92.655 25.020 -1.078 NIL 143 G_143    0.000
2933 C8 -91.701 26.013 -1.122 NIL 143 G_143    0.000
2934 N7 -90.478 25.587 -0.920 NIL 143 G_143    0.000
2935 C5 -90.632 24.215 -0.727 NIL 143 G_143    0.000
2936 C6 -89.662 23.214 -0.465 NIL 143 G_143    0.000
2937 O6 -88.446 23.334 -0.345 NIL 143 G_143    0.000
2938 N1 -90.253 21.949 -0.338 NIL 143 G_143    0.000
2939 C2 -91.605 21.686 -0.451 NIL 143 G_143    0.000
2940 N2 -91.968 20.411 -0.296 NIL 143 G_143    0.000
2941 N3 -92.514 22.626 -0.697 NIL 143 G_143    0.000
2942 C4 -91.958 23.859 -0.822 NIL 143 G_143    0.000
2943 C3* -95.835 26.707 -1.720 NIL 143 G_143    0.000
2944 C2* -94.728 26.413 -0.708 NIL 143 G_143    0.000
2945 O3* -97.001 25.975 -1.366 NIL 143 G_143    0.000
2946 P -84.434 15.416 2.966 NIL 144 C_144    0.000
2947 O1P -83.939 14.135 3.517 NIL 144 C_144    0.000
2948 O2P -83.578 16.103 1.973 NIL 144 C_144    0.000
2949 O5* -85.893 15.096 2.391 NIL 144 C_144    0.000
2950 C5* -86.983 14.925 3.313 NIL 144 C_144    0.000
2951 C4* -88.264 14.632 2.553 NIL 144 C_144    0.000
2952 O4* -88.778 15.907 2.177 NIL 144 C_144    0.000
2953 C1* -88.702 16.126 0.783 NIL 144 C_144    0.000
2954 N1 -88.107 17.481 0.617 NIL 144 C_144    0.000
2955 C6 -86.764 17.673 0.711 NIL 144 C_144    0.000
2956 C5 -86.221 18.908 0.560 NIL 144 C_144    0.000
2957 C4 -87.127 19.987 0.297 NIL 144 C_144    0.000
2958 N4 -86.666 21.218 0.139 NIL 144 C_144    0.000
2959 N3 -88.448 19.786 0.206 NIL 144 C_144    0.000
2960 C2 -88.970 18.543 0.361 NIL 144 C_144    0.000
2961 O2 -90.185 18.319 0.285 NIL 144 C_144    0.000
2962 C3* -88.096 13.877 1.235 NIL 144 C_144    0.000
2963 C2* -87.831 15.002 0.234 NIL 144 C_144    0.000
2964 O3* -89.281 13.187 0.864 NIL 144 C_144    0.000
2965 P -96.796 26.023 -0.142 NIL 145 G_145    0.000
2966 O1P -98.153 26.310 -0.658 NIL 145 G_145    0.000
2967 O2P -96.204 27.008 0.790 NIL 145 G_145    0.000
2968 O5* -96.884 24.559 0.497 NIL 145 G_145    0.000
2969 C5* -96.931 23.418 -0.378 NIL 145 G_145    0.000
2970 C4* -97.012 22.142 0.438 NIL 145 G_145    0.000
2971 O4* -95.664 21.828 0.779 NIL 145 G_145    0.000
2972 C1* -95.409 21.991 2.160 NIL 145 G_145    0.000
2973 N9 -94.147 22.778 2.249 NIL 145 G_145    0.000
2974 C8 -93.957 24.137 2.126 NIL 145 G_145    0.000
2975 N7 -92.710 24.515 2.258 NIL 145 G_145    0.000
2976 C5 -92.023 23.323 2.486 NIL 145 G_145    0.000
2977 C6 -90.641 23.092 2.704 NIL 145 G_145    0.000
2978 O6 -89.722 23.904 2.745 NIL 145 G_145    0.000
2979 N1 -90.374 21.728 2.893 NIL 145 G_145    0.000
2980 C2 -91.319 20.721 2.871 NIL 145 G_145    0.000
2981 N2 -90.861 19.484 3.073 NIL 145 G_145    0.000
2982 N3 -92.616 20.939 2.666 NIL 145 G_145    0.000
2983 C4 -92.893 22.257 2.482 NIL 145 G_145    0.000
2984 C3* -97.736 22.256 1.779 NIL 145 G_145    0.000
2985 C2* -96.626 22.717 2.723 NIL 145 G_145    0.000
2986 O3* -98.236 21.001 2.220 NIL 145 G_145    0.000
2987 P -81.705 20.002 5.943 NIL 146 C_146    0.000
2988 O1P -80.531 19.281 6.486 NIL 146 C_146    0.000
2989 O2P -81.453 21.005 4.885 NIL 146 C_146    0.000
2990 O5* -82.721 18.861 5.468 NIL 146 C_146    0.000
2991 C5* -83.467 18.135 6.461 NIL 146 C_146    0.000
2992 C4* -84.363 17.110 5.790 NIL 146 C_146    0.000
2993 O4* -85.541 17.824 5.423 NIL 146 C_146    0.000
2994 C1* -85.664 17.972 4.023 NIL 146 C_146    0.000
2995 N1 -85.982 19.409 3.794 NIL 146 C_146    0.000
2996 C6 -85.003 20.353 3.799 NIL 146 C_146    0.000
2997 C5 -85.293 21.663 3.590 NIL 146 C_146    0.000
2998 C4 -86.669 21.995 3.365 NIL 146 C_146    0.000
2999 N4 -87.023 23.254 3.154 NIL 146 C_146    0.000
3000 N3 -87.624 21.057 3.362 NIL 146 C_146    0.000
3001 C2 -87.313 19.753 3.574 NIL 146 C_146    0.000
3002 O2 -88.169 18.858 3.579 NIL 146 C_146    0.000
3003 C3* -83.838 16.527 4.478 NIL 146 C_146    0.000
3004 C2* -84.323 17.540 3.441 NIL 146 C_146    0.000
3005 O3* -84.409 15.257 4.196 NIL 146 C_146    0.000
3006 P -98.049 21.224 3.427 NIL 147 G_147    0.000
3007 O1P -99.337 20.637 2.993 NIL 147 G_147    0.000
3008 O2P -98.108 22.417 4.301 NIL 147 G_147    0.000
3009 O5* -97.238 20.019 4.098 NIL 147 G_147    0.000
3010 C5* -96.643 19.021 3.250 NIL 147 G_147    0.000
3011 C4* -95.929 17.982 4.093 NIL 147 G_147    0.000
3012 O4* -94.640 18.533 4.354 NIL 147 G_147    0.000
3013 C1* -94.472 18.886 5.712 NIL 147 G_147    0.000
3014 N9 -93.908 20.264 5.706 NIL 147 G_147    0.000
3015 C8 -94.554 21.470 5.545 NIL 147 G_147    0.000
3016 N7 -93.760 22.512 5.591 NIL 147 G_147    0.000
3017 C5 -92.498 21.958 5.797 NIL 147 G_147    0.000
3018 C6 -91.234 22.588 5.932 NIL 147 G_147    0.000
3019 O6 -90.964 23.785 5.898 NIL 147 G_147    0.000
3020 N1 -90.212 21.649 6.128 NIL 147 G_147    0.000
3021 C2 -90.388 20.280 6.186 NIL 147 G_147    0.000
3022 N2 -89.285 19.555 6.382 NIL 147 G_147    0.000
3023 N3 -91.575 19.690 6.059 NIL 147 G_147    0.000
3024 C4 -92.577 20.586 5.869 NIL 147 G_147    0.000
3025 C3* -96.527 17.723 5.476 NIL 147 G_147    0.000
3026 C2* -95.860 18.794 6.338 NIL 147 G_147    0.000
3027 O3* -96.180 16.437 5.971 NIL 147 G_147    0.000
3028 P -82.058 25.467 8.653 NIL 148 C_148    0.000
3029 O1P -80.664 25.596 9.134 NIL 148 C_148    0.000
3030 O2P -82.484 26.372 7.563 NIL 148 C_148    0.000
3031 O5* -82.233 23.925 8.266 NIL 148 C_148    0.000
3032 C5* -82.371 22.953 9.318 NIL 148 C_148    0.000
3033 C4* -82.524 21.565 8.725 NIL 148 C_148    0.000
3034 O4* -83.911 21.437 8.420 NIL 148 C_148    0.000
3035 C1* -84.154 21.412 7.028 NIL 148 C_148    0.000
3036 N1 -85.262 22.379 6.792 NIL 148 C_148    0.000
3037 C6 -85.022 23.715 6.717 NIL 148 C_148    0.000
3038 C5 -86.031 24.597 6.502 NIL 148 C_148    0.000
3039 C4 -87.349 24.051 6.359 NIL 148 C_148    0.000
3040 N4 -88.381 24.854 6.147 NIL 148 C_148    0.000
3041 N3 -87.574 22.734 6.435 NIL 148 C_148    0.000
3042 C2 -86.550 21.869 6.651 NIL 148 C_148    0.000
3043 O2 -86.719 20.645 6.727 NIL 148 C_148    0.000
3044 C3* -81.811 21.330 7.393 NIL 148 C_148    0.000
3045 C2* -82.838 21.813 6.370 NIL 148 C_148    0.000
3046 O3* -81.541 19.952 7.172 NIL 148 C_148    0.000
3047 P -96.110 16.791 7.159 NIL 149 G_149    0.000
3048 O1P -96.827 15.541 6.819 NIL 149 G_149    0.000
3049 O2P -96.821 17.769 8.012 NIL 149 G_149    0.000
3050 O5* -94.720 16.323 7.800 NIL 149 G_149    0.000
3051 C5* -93.689 15.816 6.935 NIL 149 G_149    0.000
3052 C4* -92.468 15.435 7.750 NIL 149 G_149    0.000
3053 O4* -91.736 16.647 7.919 NIL 149 G_149    0.000
3054 C1* -91.752 17.103 9.256 NIL 149 G_149    0.000
3055 N9 -92.102 18.549 9.188 NIL 149 G_149    0.000
3056 C8 -93.338 19.140 9.046 NIL 149 G_149    0.000
3057 N7 -93.303 20.450 9.021 NIL 149 G_149    0.000
3058 C5 -91.948 20.749 9.157 NIL 149 G_149    0.000
3059 C6 -91.289 22.004 9.199 NIL 149 G_149    0.000
3060 O6 -91.772 23.130 9.125 NIL 149 G_149    0.000
3061 N1 -89.903 21.849 9.348 NIL 149 G_149    0.000
3062 C2 -89.242 20.640 9.443 NIL 149 G_149    0.000
3063 N2 -87.916 20.706 9.581 NIL 149 G_149    0.000
3064 N3 -89.863 19.463 9.403 NIL 149 G_149    0.000
3065 C4 -91.207 19.594 9.260 NIL 149 G_149    0.000
3066 C3* -92.745 14.949 9.173 NIL 149 G_149    0.000
3067 C2* -92.797 16.252 9.971 NIL 149 G_149    0.000
3068 O3* -91.691 14.136 9.670 NIL 149 G_149    0.000
3069 P -85.434 29.834 11.276 NIL 150 C_150    0.000
3070 O1P -84.361 30.777 11.665 NIL 150 C_150    0.000
3071 O2P -86.353 30.261 10.198 NIL 150 C_150    0.000
3072 O5* -84.688 28.461 10.930 NIL 150 C_150    0.000
3073 C5* -84.189 27.648 12.007 NIL 150 C_150    0.000
3074 C4* -83.524 26.403 11.451 NIL 150 C_150    0.000
3075 O4* -84.584 25.474 11.238 NIL 150 C_150    0.000
3076 C1* -84.823 25.238 9.865 NIL 150 C_150    0.000
3077 N1 -86.295 25.363 9.681 NIL 150 C_150    0.000
3078 C6 -86.886 26.583 9.566 NIL 150 C_150    0.000
3079 C5 -88.229 26.697 9.399 NIL 150 C_150    0.000
3080 C4 -88.982 25.479 9.351 NIL 150 C_150    0.000
3081 N4 -90.296 25.516 9.189 NIL 150 C_150    0.000
3082 N3 -88.390 24.284 9.465 NIL 150 C_150    0.000
3083 C2 -87.046 24.191 9.632 NIL 150 C_150    0.000
3084 O2 -86.463 23.105 9.742 NIL 150 C_150    0.000
3085 C3* -82.863 26.558 10.082 NIL 150 C_150    0.000
3086 C2* -84.019 26.297 9.117 NIL 150 C_150    0.000
3087 O3* -81.847 25.587 9.870 NIL 150 C_150    0.000
3088 P -91.793 14.526 10.844 NIL 151 G_151    0.000
3089 O1P -91.656 13.077 10.574 NIL 151 G_151    0.000
3090 O2P -92.907 14.948 11.722 NIL 151 G_151    0.000
3091 O5* -90.368 14.990 11.404 NIL 151 G_151    0.000
3092 C5* -89.272 15.136 10.484 NIL 151 G_151    0.000
3093 C4* -88.027 15.582 11.228 NIL 151 G_151    0.000
3094 O4* -88.137 17.000 11.326 NIL 151 G_151    0.000
3095 C1* -88.362 17.430 12.653 NIL 151 G_151    0.000
3096 N9 -89.495 18.395 12.580 NIL 151 G_151    0.000
3097 C8 -90.848 18.146 12.506 NIL 151 G_151    0.000
3098 N7 -91.588 19.227 12.454 NIL 151 G_151    0.000
3099 C5 -90.660 20.266 12.497 NIL 151 G_151    0.000
3100 C6 -90.859 21.671 12.474 NIL 151 G_151    0.000
3101 O6 -91.912 22.297 12.410 NIL 151 G_151    0.000
3102 N1 -89.640 22.361 12.537 NIL 151 G_151    0.000
3103 C2 -88.393 21.771 12.613 NIL 151 G_151    0.000
3104 N2 -87.353 22.606 12.665 NIL 151 G_151    0.000
3105 N3 -88.208 20.453 12.635 NIL 151 G_151    0.000
3106 C4 -89.379 19.768 12.575 NIL 151 G_151    0.000
3107 C3* -87.909 15.102 12.674 NIL 151 G_151    0.000
3108 C2* -88.681 16.169 13.449 NIL 151 G_151    0.000
3109 O3* -86.559 15.083 13.118 NIL 151 G_151    0.000
3110 P -90.617 31.541 14.025 NIL 152 C_152    0.000
3111 O1P -90.285 32.952 14.327 NIL 152 C_152    0.000
3112 O2P -91.655 31.294 13.000 NIL 152 C_152    0.000
3113 O5* -89.224 30.845 13.659 NIL 152 C_152    0.000
3114 C5* -88.300 30.535 14.716 NIL 152 C_152    0.000
3115 C4* -87.055 29.884 14.144 NIL 152 C_152    0.000
3116 O4* -87.379 28.501 14.016 NIL 152 C_152    0.000
3117 C1* -87.489 28.099 12.666 NIL 152 C_152    0.000
3118 N1 -88.763 27.332 12.574 NIL 152 C_152    0.000
3119 C6 -89.960 27.969 12.473 NIL 152 C_152    0.000
3120 C5 -91.121 27.270 12.389 NIL 152 C_152    0.000
3121 C4 -91.019 25.841 12.412 NIL 152 C_152    0.000
3122 N4 -92.111 25.096 12.334 NIL 152 C_152    0.000
3123 N3 -89.835 25.223 12.512 NIL 152 C_152    0.000
3124 C2 -88.686 25.941 12.594 NIL 152 C_152    0.000
3125 O2 -87.574 25.407 12.688 NIL 152 C_152    0.000
3126 C3* -86.666 30.323 12.732 NIL 152 C_152    0.000
3127 C2* -87.489 29.386 11.848 NIL 152 C_152    0.000
3128 O3* -85.283 30.118 12.475 NIL 152 C_152    0.000
3129 P -86.823 15.401 14.289 NIL 153 G_153    0.000
3130 O1P -85.874 14.293 14.039 NIL 153 G_153    0.000
3131 O2P -87.936 15.141 15.228 NIL 153 G_153    0.000
3132 O5* -85.918 16.639 14.748 NIL 153 G_153    0.000
3133 C5* -85.153 17.348 13.758 NIL 153 G_153    0.000
3134 C4* -84.376 18.475 14.413 NIL 153 G_153    0.000
3135 O4* -85.291 19.565 14.491 NIL 153 G_153    0.000
3136 C1* -85.672 19.852 15.821 NIL 153 G_153    0.000
3137 N9 -87.157 19.969 15.802 NIL 153 G_153    0.000
3138 C8 -88.109 18.974 15.818 NIL 153 G_153    0.000
3139 N7 -89.343 19.416 15.793 NIL 153 G_153    0.000
3140 C5 -89.198 20.802 15.758 NIL 153 G_153    0.000
3141 C6 -90.183 21.823 15.720 NIL 153 G_153    0.000
3142 O6 -91.406 21.713 15.711 NIL 153 G_153    0.000
3143 N1 -89.598 23.097 15.693 NIL 153 G_153    0.000
3144 C2 -88.240 23.350 15.700 NIL 153 G_153    0.000
3145 N2 -87.884 24.637 15.671 NIL 153 G_153    0.000
3146 N3 -87.317 22.391 15.735 NIL 153 G_153    0.000
3147 C4 -87.867 21.150 15.763 NIL 153 G_153    0.000
3148 C3* -83.941 18.230 15.857 NIL 153 G_153    0.000
3149 C2* -85.159 18.686 16.659 NIL 153 G_153    0.000
3150 O3* -82.819 19.026 16.215 NIL 153 G_153    0.000
3151 P -95.703 30.046 17.066 NIL 154 C_154    0.000
3152 O1P -96.247 31.399 17.319 NIL 154 C_154    0.000
3153 O2P -96.440 29.187 16.113 NIL 154 C_154    0.000
3154 O5* -94.182 30.275 16.624 NIL 154 C_154    0.000
3155 C5* -93.209 30.618 17.627 NIL 154 C_154    0.000
3156 C4* -91.843 30.787 16.989 NIL 154 C_154    0.000
3157 O4* -91.301 29.471 16.908 NIL 154 C_154    0.000
3158 C1* -91.210 29.009 15.575 NIL 154 C_154    0.000
3159 N1 -91.796 27.640 15.579 NIL 154 C_154    0.000
3160 C6 -93.142 27.453 15.542 NIL 154 C_154    0.000
3161 C5 -93.676 26.204 15.546 NIL 154 C_154    0.000
3162 C4 -92.756 25.106 15.590 NIL 154 C_154    0.000
3163 N4 -93.208 23.861 15.596 NIL 154 C_154    0.000
3164 N3 -91.432 25.302 15.625 NIL 154 C_154    0.000
3165 C2 -90.919 26.559 15.621 NIL 154 C_154    0.000
3166 O2 -89.701 26.779 15.654 NIL 154 C_154    0.000
3167 C3* -91.843 31.296 15.547 NIL 154 C_154    0.000
3168 C2* -91.996 30.010 14.735 NIL 154 C_154    0.000
3169 O3* -90.613 31.922 15.207 NIL 154 C_154    0.000
3170 P -83.171 19.192 17.394 NIL 155 G_155    0.000
3171 O1P -81.764 18.833 17.104 NIL 155 G_155    0.000
3172 O2P -83.882 18.380 18.406 NIL 155 G_155    0.000
3173 O5* -83.145 20.746 17.771 NIL 155 G_155    0.000
3174 C5* -82.980 21.716 16.721 NIL 155 G_155    0.000
3175 C4* -82.984 23.117 17.303 NIL 155 G_155    0.000
3176 O4* -84.361 23.471 17.418 NIL 155 G_155    0.000
3177 C1* -84.783 23.551 18.764 NIL 155 G_155    0.000
3178 N9 -86.055 22.779 18.838 NIL 155 G_155    0.000
3179 C8 -86.243 21.417 18.934 NIL 155 G_155    0.000
3180 N7 -87.501 21.055 18.978 NIL 155 G_155    0.000
3181 C5 -88.197 22.261 18.908 NIL 155 G_155    0.000
3182 C6 -89.593 22.512 18.913 NIL 155 G_155    0.000
3183 O6 -90.519 21.709 18.985 NIL 155 G_155    0.000
3184 N1 -89.866 23.884 18.825 NIL 155 G_155    0.000
3185 C2 -88.915 24.882 18.741 NIL 155 G_155    0.000
3186 N2 -89.381 26.131 18.665 NIL 155 G_155    0.000
3187 N3 -87.605 24.645 18.736 NIL 155 G_155    0.000
3188 C4 -87.322 23.319 18.822 NIL 155 G_155    0.000
3189 C3* -82.430 23.249 18.721 NIL 155 G_155    0.000
3190 C2* -83.651 22.949 19.590 NIL 155 G_155    0.000
3191 O3* -81.973 24.567 18.992 NIL 155 G_155    0.000
3192 P -98.822 26.027 20.451 NIL 156 C_156    0.000
3193 O1P -100.045 26.820 20.713 NIL 156 C_156    0.000
3194 O2P -98.955 24.850 19.564 NIL 156 C_156    0.000
3195 O5* -97.743 27.077 19.910 NIL 156 C_156    0.000
3196 C5* -97.116 27.975 20.842 NIL 156 C_156    0.000
3197 C4* -96.134 28.875 20.115 NIL 156 C_156    0.000
3198 O4* -94.928 28.120 20.024 NIL 156 C_156    0.000
3199 C1* -94.638 27.730 18.698 NIL 156 C_156    0.000
3200 N1 -94.310 26.278 18.765 NIL 156 C_156    0.000
3201 C6 -95.292 25.339 18.818 NIL 156 C_156    0.000
3202 C5 -94.994 24.016 18.879 NIL 156 C_156    0.000
3203 C4 -93.604 23.665 18.885 NIL 156 C_156    0.000
3204 N4 -93.241 22.393 18.943 NIL 156 C_156    0.000
3205 N3 -92.645 24.598 18.833 NIL 156 C_156    0.000
3206 C2 -92.966 25.916 18.772 NIL 156 C_156    0.000
3207 O2 -92.107 26.806 18.723 NIL 156 C_156    0.000
3208 C3* -96.490 29.212 18.667 NIL 156 C_156    0.000
3209 C2* -95.894 28.038 17.891 NIL 156 C_156    0.000
3210 O3* -95.875 30.419 18.237 NIL 156 C_156    0.000
3211 P -82.308 24.558 20.187 NIL 157 G_157    0.000
3212 O1P -80.970 25.072 19.816 NIL 157 G_157    0.000
3213 O2P -82.367 23.538 21.258 NIL 157 G_157    0.000
3214 O5* -83.181 25.853 20.532 NIL 157 G_157    0.000
3215 C5* -83.657 26.679 19.456 NIL 157 G_157    0.000
3216 C4* -84.458 27.843 20.010 NIL 157 G_157    0.000
3217 O4* -85.775 27.333 20.207 NIL 157 G_157    0.000
3218 C1* -86.109 27.223 21.575 NIL 157 G_157    0.000
3219 N9 -86.684 25.859 21.744 NIL 157 G_157    0.000
3220 C8 -86.035 24.651 21.877 NIL 157 G_157    0.000
3221 N7 -86.840 23.625 22.008 NIL 157 G_157    0.000
3222 C5 -88.112 24.193 21.959 NIL 157 G_157    0.000
3223 C6 -89.390 23.582 22.049 NIL 157 G_157    0.000
3224 O6 -89.667 22.395 22.194 NIL 157 G_157    0.000
3225 N1 -90.418 24.531 21.952 NIL 157 G_157    0.000
3226 C2 -90.235 25.890 21.789 NIL 157 G_157    0.000
3227 N2 -91.347 26.626 21.719 NIL 157 G_157    0.000
3228 N3 -89.036 26.461 21.705 NIL 157 G_157    0.000
3229 C4 -88.027 25.556 21.798 NIL 157 G_157    0.000
3230 C3* -84.029 28.348 21.388 NIL 157 G_157    0.000
3231 C2* -84.807 27.438 22.339 NIL 157 G_157    0.000
3232 O3* -84.419 29.697 21.604 NIL 157 G_157    0.000
3233 P -98.859 21.129 24.104 NIL 158 C_158    0.000
3234 O1P -100.302 21.071 24.428 NIL 158 C_158    0.000
3235 O2P -98.313 20.051 23.250 NIL 158 C_158    0.000
3236 O5* -98.621 22.581 23.475 NIL 158 C_158    0.000
3237 C5* -98.601 23.724 24.348 NIL 158 C_158    0.000
3238 C4* -98.363 24.987 23.543 NIL 158 C_158    0.000
3239 O4* -96.948 25.074 23.391 NIL 158 C_158    0.000
3240 C1* -96.538 24.857 22.056 NIL 158 C_158    0.000
3241 N1 -95.420 23.875 22.130 NIL 158 C_158    0.000
3242 C6 -95.663 22.544 22.262 NIL 158 C_158    0.000
3243 C5 -94.645 21.649 22.330 NIL 158 C_158    0.000
3244 C4 -93.314 22.175 22.254 NIL 158 C_158    0.000
3245 N4 -92.273 21.359 22.313 NIL 158 C_158    0.000
3246 N3 -93.086 23.488 22.123 NIL 158 C_158    0.000
3247 C2 -94.119 24.366 22.058 NIL 158 C_158    0.000
3248 O2 -93.947 25.586 21.938 NIL 158 C_158    0.000
3249 C3* -98.906 24.977 22.115 NIL 158 C_158    0.000
3250 C2* -97.768 24.332 21.325 NIL 158 C_158    0.000
3251 O3* -99.133 26.291 21.624 NIL 158 C_158    0.000
3252 P -84.636 29.557 22.818 NIL 159 G_159    0.000
3253 O1P -83.870 30.735 22.353 NIL 159 G_159    0.000
3254 O2P -84.045 28.752 23.910 NIL 159 G_159    0.000
3255 O5* -86.088 30.116 23.193 NIL 159 G_159    0.000
3256 C5* -87.001 30.451 22.134 NIL 159 G_159    0.000
3257 C4* -88.308 30.956 22.716 NIL 159 G_159    0.000
3258 O4* -89.068 29.785 23.005 NIL 159 G_159    0.000
3259 C1* -89.219 29.573 24.394 NIL 159 G_159    0.000
3260 N9 -88.879 28.141 24.625 NIL 159 G_159    0.000
3261 C8 -87.641 27.547 24.739 NIL 159 G_159    0.000
3262 N7 -87.687 26.253 24.941 NIL 159 G_159    0.000
3263 C5 -89.051 25.968 24.962 NIL 159 G_159    0.000
3264 C6 -89.725 24.733 25.145 NIL 159 G_159    0.000
3265 O6 -89.248 23.617 25.330 NIL 159 G_159    0.000
3266 N1 -91.116 24.897 25.095 NIL 159 G_159    0.000
3267 C2 -91.771 26.097 24.895 NIL 159 G_159    0.000
3268 N2 -93.105 26.041 24.882 NIL 159 G_159    0.000
3269 N3 -91.138 27.255 24.724 NIL 159 G_159    0.000
3270 C4 -89.787 27.115 24.770 NIL 159 G_159    0.000
3271 C3* -88.200 31.688 24.053 NIL 159 G_159    0.000
3272 C2* -88.259 30.547 25.069 NIL 159 G_159    0.000
3273 O3* -89.298 32.565 24.268 NIL 159 G_159    0.000
3274 P -95.872 17.329 27.844 NIL 160 C_160    0.000
3275 O1P -96.994 16.458 28.260 NIL 160 C_160    0.000
3276 O2P -94.834 16.729 26.977 NIL 160 C_160    0.000
3277 O5* -96.556 18.611 27.174 NIL 160 C_160    0.000
3278 C5* -97.173 19.595 28.022 NIL 160 C_160    0.000
3279 C4* -97.752 20.716 27.180 NIL 160 C_160    0.000
3280 O4* -96.664 21.604 26.936 NIL 160 C_160    0.000
3281 C1* -96.259 21.597 25.582 NIL 160 C_160    0.000
3282 N1 -94.776 21.457 25.603 NIL 160 C_160    0.000
3283 C6 -94.188 20.243 25.776 NIL 160 C_160    0.000
3284 C5 -92.837 20.116 25.796 NIL 160 C_160    0.000
3285 C4 -92.070 21.315 25.626 NIL 160 C_160    0.000
3286 N4 -90.747 21.264 25.634 NIL 160 C_160    0.000
3287 N3 -92.659 22.505 25.455 NIL 160 C_160    0.000
3288 C2 -94.013 22.611 25.439 NIL 160 C_160    0.000
3289 O2 -94.593 23.693 25.285 NIL 160 C_160    0.000
3290 C3* -98.244 20.316 25.789 NIL 160 C_160    0.000
3291 C2* -96.977 20.415 24.941 NIL 160 C_160    0.000
3292 O3* -99.217 21.223 25.289 NIL 160 C_160    0.000
3293 P -89.343 32.389 25.496 NIL 161 G_161    0.000
3294 O1P -89.430 33.767 24.961 NIL 161 G_161    0.000
3295 O2P -88.348 32.140 26.563 NIL 161 G_161    0.000
3296 O5* -90.830 32.015 25.952 NIL 161 G_161    0.000
3297 C5* -91.808 31.698 24.947 NIL 161 G_161    0.000
3298 C4* -93.139 31.376 25.601 NIL 161 G_161    0.000
3299 O4* -93.057 29.999 25.960 NIL 161 G_161    0.000
3300 C1* -92.998 29.812 27.360 NIL 161 G_161    0.000
3301 N9 -91.875 28.862 27.596 NIL 161 G_161    0.000
3302 C8 -90.521 29.109 27.642 NIL 161 G_161    0.000
3303 N7 -89.792 28.043 27.871 NIL 161 G_161    0.000
3304 C5 -90.730 27.018 27.985 NIL 161 G_161    0.000
3305 C6 -90.544 25.633 28.233 NIL 161 G_161    0.000
3306 O6 -89.498 25.016 28.409 NIL 161 G_161    0.000
3307 N1 -91.769 24.952 28.269 NIL 161 G_161    0.000
3308 C2 -93.010 25.532 28.088 NIL 161 G_161    0.000
3309 N2 -94.058 24.708 28.161 NIL 161 G_161    0.000
3310 N3 -93.182 26.831 27.855 NIL 161 G_161    0.000
3311 C4 -92.005 27.508 27.818 NIL 161 G_161    0.000
3312 C3* -93.426 32.103 26.915 NIL 161 G_161    0.000
3313 C2* -92.765 31.197 27.954 NIL 161 G_161    0.000
3314 O3* -94.819 32.185 27.183 NIL 161 G_161    0.000
3315 P -91.078 16.188 31.458 NIL 162 C_162    0.000
3316 O1P -91.460 14.849 31.961 NIL 162 C_162    0.000
3317 O2P -89.921 16.262 30.538 NIL 162 C_162    0.000
3318 O5* -92.409 16.793 30.808 NIL 162 C_162    0.000
3319 C5* -93.451 17.276 31.675 NIL 162 C_162    0.000
3320 C4* -94.611 17.802 30.850 NIL 162 C_162    0.000
3321 O4* -94.259 19.144 30.521 NIL 162 C_162    0.000
3322 C1* -93.982 19.303 29.145 NIL 162 C_162    0.000
3323 N1 -92.698 20.056 29.074 NIL 162 C_162    0.000
3324 C6 -91.505 19.424 29.232 NIL 162 C_162    0.000
3325 C5 -90.335 20.110 29.168 NIL 162 C_162    0.000
3326 C4 -90.423 21.520 28.927 NIL 162 C_162    0.000
3327 N4 -89.321 22.251 28.852 NIL 162 C_162    0.000
3328 N3 -91.603 22.132 28.772 NIL 162 C_162    0.000
3329 C2 -92.762 21.427 28.840 NIL 162 C_162    0.000
3330 O2 -93.871 21.958 28.703 NIL 162 C_162    0.000
3331 C3* -94.831 17.117 29.502 NIL 162 C_162    0.000
3332 C2* -93.897 17.892 28.572 NIL 162 C_162    0.000
3333 O3* -96.170 17.259 29.047 NIL 162 C_162    0.000
3334 P -94.703 32.081 28.414 NIL 163 G_163    0.000
3335 O1P -95.602 33.117 27.859 NIL 163 G_163    0.000
3336 O2P -93.708 32.514 29.420 NIL 163 G_163    0.000
3337 O5* -95.669 30.934 28.971 NIL 163 G_163    0.000
3338 C5* -96.317 30.053 28.036 NIL 163 G_163    0.000
3339 C4* -97.179 29.050 28.780 NIL 163 G_163    0.000
3340 O4* -96.292 28.001 29.159 NIL 163 G_163    0.000
3341 C1* -96.078 27.957 30.555 NIL 163 G_163    0.000
3342 N9 -94.603 27.854 30.737 NIL 163 G_163    0.000
3343 C8 -93.649 28.847 30.693 NIL 163 G_163    0.000
3344 N7 -92.426 28.421 30.895 NIL 163 G_163    0.000
3345 C5 -92.581 27.049 31.087 NIL 163 G_163    0.000
3346 C6 -91.610 26.048 31.350 NIL 163 G_163    0.000
3347 O6 -90.394 26.167 31.470 NIL 163 G_163    0.000
3348 N1 -92.201 24.783 31.476 NIL 163 G_163    0.000
3349 C2 -93.553 24.520 31.364 NIL 163 G_163    0.000
3350 N2 -93.916 23.245 31.518 NIL 163 G_163    0.000
3351 N3 -94.462 25.460 31.118 NIL 163 G_163    0.000
3352 C4 -93.906 26.693 30.993 NIL 163 G_163    0.000
3353 C3* -97.784 29.541 30.095 NIL 163 G_163    0.000
3354 C2* -96.676 29.247 31.106 NIL 163 G_163    0.000
3355 O3* -98.949 28.808 30.449 NIL 163 G_163    0.000
3356 P -86.383 18.250 34.780 NIL 164 C_164    0.000
3357 O1P -85.887 16.969 35.332 NIL 164 C_164    0.000
3358 O2P -85.526 18.936 33.788 NIL 164 C_164    0.000
3359 O5* -87.841 17.930 34.205 NIL 164 C_164    0.000
3360 C5* -88.932 17.759 35.128 NIL 164 C_164    0.000
3361 C4* -90.212 17.466 34.368 NIL 164 C_164    0.000
3362 O4* -90.726 18.741 33.992 NIL 164 C_164    0.000
3363 C1* -90.651 18.960 32.598 NIL 164 C_164    0.000
3364 N1 -90.055 20.315 32.431 NIL 164 C_164    0.000
3365 C6 -88.712 20.507 32.526 NIL 164 C_164    0.000
3366 C5 -88.169 21.742 32.374 NIL 164 C_164    0.000
3367 C4 -89.075 22.821 32.112 NIL 164 C_164    0.000
3368 N4 -88.614 24.052 31.953 NIL 164 C_164    0.000
3369 N3 -90.396 22.620 32.021 NIL 164 C_164    0.000
3370 C2 -90.919 21.377 32.176 NIL 164 C_164    0.000
3371 O2 -92.134 21.153 32.100 NIL 164 C_164    0.000
3372 C3* -90.044 16.711 33.050 NIL 164 C_164    0.000
3373 C2* -89.779 17.835 32.048 NIL 164 C_164    0.000
3374 O3* -91.229 16.021 32.678 NIL 164 C_164    0.000
3375 P -98.744 28.857 31.672 NIL 165 G_165    0.000
3376 O1P -100.101 29.143 31.156 NIL 165 G_165    0.000
3377 O2P -98.152 29.842 32.605 NIL 165 G_165    0.000
3378 O5* -98.833 27.393 32.311 NIL 165 G_165    0.000
3379 C5* -98.880 26.252 31.436 NIL 165 G_165    0.000
3380 C4* -98.961 24.975 32.252 NIL 165 G_165    0.000
3381 O4* -97.612 24.662 32.594 NIL 165 G_165    0.000
3382 C1* -97.357 24.824 33.974 NIL 165 G_165    0.000
3383 N9 -96.095 25.611 34.064 NIL 165 G_165    0.000
3384 C8 -95.906 26.970 33.940 NIL 165 G_165    0.000
3385 N7 -94.658 27.349 34.073 NIL 165 G_165    0.000
3386 C5 -93.972 26.157 34.300 NIL 165 G_165    0.000
3387 C6 -92.589 25.926 34.519 NIL 165 G_165    0.000
3388 O6 -91.670 26.738 34.559 NIL 165 G_165    0.000
3389 N1 -92.322 24.562 34.707 NIL 165 G_165    0.000
3390 C2 -93.267 23.555 34.686 NIL 165 G_165    0.000
3391 N2 -92.809 22.317 34.887 NIL 165 G_165    0.000
3392 N3 -94.564 23.773 34.480 NIL 165 G_165    0.000
3393 C4 -94.841 25.090 34.297 NIL 165 G_165    0.000
3394 C3* -99.684 25.089 33.594 NIL 165 G_165    0.000
3395 C2* -98.574 25.551 34.538 NIL 165 G_165    0.000
3396 O3* -100.185 23.835 34.035 NIL 165 G_165    0.000
3397 P -83.653 22.835 37.758 NIL 166 C_166    0.000
3398 O1P -82.480 22.115 38.301 NIL 166 C_166    0.000
3399 O2P -83.401 23.839 36.700 NIL 166 C_166    0.000
3400 O5* -84.670 21.695 37.283 NIL 166 C_166    0.000
3401 C5* -85.415 20.969 38.276 NIL 166 C_166    0.000
3402 C4* -86.311 19.944 37.605 NIL 166 C_166    0.000
3403 O4* -87.489 20.658 37.238 NIL 166 C_166    0.000
3404 C1* -87.612 20.806 35.838 NIL 166 C_166    0.000
3405 N1 -87.930 22.243 35.608 NIL 166 C_166    0.000
3406 C6 -86.951 23.187 35.613 NIL 166 C_166    0.000
3407 C5 -87.241 24.497 35.404 NIL 166 C_166    0.000
3408 C4 -88.617 24.829 35.180 NIL 166 C_166    0.000
3409 N4 -88.971 26.087 34.969 NIL 166 C_166    0.000
3410 N3 -89.572 23.891 35.177 NIL 166 C_166    0.000
3411 C2 -89.262 22.586 35.388 NIL 166 C_166    0.000
3412 O2 -90.117 21.692 35.394 NIL 166 C_166    0.000
3413 C3* -85.786 19.361 36.293 NIL 166 C_166    0.000
3414 C2* -86.271 20.374 35.256 NIL 166 C_166    0.000
3415 O3* -86.358 18.091 36.011 NIL 166 C_166    0.000
3416 P -99.997 24.058 35.242 NIL 167 G_167    0.000
3417 O1P -101.285 23.471 34.808 NIL 167 G_167    0.000
3418 O2P -100.057 25.250 36.116 NIL 167 G_167    0.000
3419 O5* -99.186 22.853 35.913 NIL 167 G_167    0.000
3420 C5* -98.592 21.855 35.064 NIL 167 G_167    0.000
3421 C4* -97.877 20.816 35.908 NIL 167 G_167    0.000
3422 O4* -96.588 21.366 36.169 NIL 167 G_167    0.000
3423 C1* -96.420 21.720 37.527 NIL 167 G_167    0.000
3424 N9 -95.856 23.098 37.521 NIL 167 G_167    0.000
3425 C8 -96.503 24.304 37.360 NIL 167 G_167    0.000
3426 N7 -95.709 25.345 37.405 NIL 167 G_167    0.000
3427 C5 -94.446 24.792 37.611 NIL 167 G_167    0.000
3428 C6 -93.182 25.422 37.746 NIL 167 G_167    0.000
3429 O6 -92.912 26.619 37.713 NIL 167 G_167    0.000
3430 N1 -92.160 24.482 37.943 NIL 167 G_167    0.000
3431 C2 -92.337 23.114 38.001 NIL 167 G_167    0.000
3432 N2 -91.233 22.389 38.196 NIL 167 G_167    0.000
3433 N3 -93.523 22.523 37.874 NIL 167 G_167    0.000
3434 C4 -94.525 23.420 37.684 NIL 167 G_167    0.000
3435 C3* -98.475 20.557 37.290 NIL 167 G_167    0.000
3436 C2* -97.808 21.628 38.153 NIL 167 G_167    0.000
3437 O3* -98.128 19.271 37.786 NIL 167 G_167    0.000
3438 P -84.006 28.301 40.468 NIL 168 C_168    0.000
3439 O1P -82.612 28.430 40.949 NIL 168 C_168    0.000
3440 O2P -84.433 29.206 39.377 NIL 168 C_168    0.000
3441 O5* -84.181 26.759 40.081 NIL 168 C_168    0.000
3442 C5* -84.319 25.787 41.132 NIL 168 C_168    0.000
3443 C4* -84.472 24.399 40.539 NIL 168 C_168    0.000
3444 O4* -85.859 24.271 40.235 NIL 168 C_168    0.000
3445 C1* -86.102 24.245 38.843 NIL 168 C_168    0.000
3446 N1 -87.210 25.213 38.606 NIL 168 C_168    0.000
3447 C6 -86.970 26.549 38.531 NIL 168 C_168    0.000
3448 C5 -87.979 27.431 38.317 NIL 168 C_168    0.000
3449 C4 -89.297 26.885 38.174 NIL 168 C_168    0.000
3450 N4 -90.329 27.688 37.962 NIL 168 C_168    0.000
3451 N3 -89.522 25.568 38.249 NIL 168 C_168    0.000
3452 C2 -88.498 24.703 38.465 NIL 168 C_168    0.000
3453 O2 -88.667 23.479 38.542 NIL 168 C_168    0.000
3454 C3* -83.759 24.163 39.208 NIL 168 C_168    0.000
3455 C2* -84.786 24.647 38.185 NIL 168 C_168    0.000
3456 O3* -83.489 22.785 38.987 NIL 168 C_168    0.000
3457 P -98.058 19.625 38.974 NIL 169 G_169    0.000
3458 O1P -98.775 18.375 38.634 NIL 169 G_169    0.000
3459 O2P -98.769 20.603 39.827 NIL 169 G_169    0.000
3460 O5* -96.669 19.157 39.615 NIL 169 G_169    0.000
3461 C5* -95.637 18.650 38.749 NIL 169 G_169    0.000
3462 C4* -94.416 18.269 39.565 NIL 169 G_169    0.000
3463 O4* -93.684 19.481 39.733 NIL 169 G_169    0.000
3464 C1* -93.701 19.936 41.071 NIL 169 G_169    0.000
3465 N9 -94.051 21.383 41.003 NIL 169 G_169    0.000
3466 C8 -95.287 21.974 40.861 NIL 169 G_169    0.000
3467 N7 -95.252 23.284 40.836 NIL 169 G_169    0.000
3468 C5 -93.897 23.582 40.971 NIL 169 G_169    0.000
3469 C6 -93.237 24.838 41.014 NIL 169 G_169    0.000
3470 O6 -93.720 25.964 40.940 NIL 169 G_169    0.000
3471 N1 -91.852 24.683 41.163 NIL 169 G_169    0.000
3472 C2 -91.191 23.473 41.257 NIL 169 G_169    0.000
3473 N2 -89.865 23.540 41.396 NIL 169 G_169    0.000
3474 N3 -91.811 22.296 41.218 NIL 169 G_169    0.000
3475 C4 -93.155 22.428 41.074 NIL 169 G_169    0.000
3476 C3* -94.693 17.783 40.988 NIL 169 G_169    0.000
3477 C2* -94.745 19.086 41.786 NIL 169 G_169    0.000
3478 O3* -93.639 16.969 41.485 NIL 169 G_169    0.000
3479 P -87.382 32.667 43.091 NIL 170 C_170    0.000
3480 O1P -86.309 33.610 43.480 NIL 170 C_170    0.000
3481 O2P -88.301 33.094 42.013 NIL 170 C_170    0.000
3482 O5* -86.636 31.295 42.745 NIL 170 C_170    0.000
3483 C5* -86.137 30.482 43.821 NIL 170 C_170    0.000
3484 C4* -85.472 29.236 43.266 NIL 170 C_170    0.000
3485 O4* -86.532 28.308 43.052 NIL 170 C_170    0.000
3486 C1* -86.771 28.072 41.680 NIL 170 C_170    0.000
3487 N1 -88.244 28.197 41.496 NIL 170 C_170    0.000
3488 C6 -88.835 29.416 41.380 NIL 170 C_170    0.000
3489 C5 -90.177 29.531 41.214 NIL 170 C_170    0.000
3490 C4 -90.930 28.313 41.165 NIL 170 C_170    0.000
3491 N4 -92.244 28.350 41.004 NIL 170 C_170    0.000
3492 N3 -90.338 27.118 41.280 NIL 170 C_170    0.000
3493 C2 -88.994 27.025 41.447 NIL 170 C_170    0.000
3494 O2 -88.411 25.939 41.557 NIL 170 C_170    0.000
3495 C3* -84.811 29.391 41.897 NIL 170 C_170    0.000
3496 C2* -85.967 29.131 40.932 NIL 170 C_170    0.000
3497 O3* -83.795 28.420 41.685 NIL 170 C_170    0.000
3498 P -93.741 17.359 42.659 NIL 171 G_171    0.000
3499 O1P -93.604 15.910 42.389 NIL 171 G_171    0.000
3500 O2P -94.855 17.782 43.537 NIL 171 G_171    0.000
3501 O5* -92.317 17.824 43.219 NIL 171 G_171    0.000
3502 C5* -91.220 17.969 42.299 NIL 171 G_171    0.000
3503 C4* -89.975 18.416 43.043 NIL 171 G_171    0.000
3504 O4* -90.085 19.834 43.141 NIL 171 G_171    0.000
3505 C1* -90.311 20.264 44.468 NIL 171 G_171    0.000
3506 N9 -91.444 21.229 44.395 NIL 171 G_171    0.000
3507 C8 -92.796 20.979 44.320 NIL 171 G_171    0.000
3508 N7 -93.536 22.060 44.268 NIL 171 G_171    0.000
3509 C5 -92.608 23.100 44.312 NIL 171 G_171    0.000
3510 C6 -92.807 24.504 44.288 NIL 171 G_171    0.000
3511 O6 -93.861 25.131 44.224 NIL 171 G_171    0.000
3512 N1 -91.588 25.194 44.352 NIL 171 G_171    0.000
3513 C2 -90.341 24.605 44.427 NIL 171 G_171    0.000
3514 N2 -89.301 25.440 44.480 NIL 171 G_171    0.000
3515 N3 -90.156 23.287 44.449 NIL 171 G_171    0.000
3516 C4 -91.328 22.602 44.389 NIL 171 G_171    0.000
3517 C3* -89.857 17.935 44.489 NIL 171 G_171    0.000
3518 C2* -90.629 19.003 45.264 NIL 171 G_171    0.000
3519 O3* -88.507 17.917 44.933 NIL 171 G_171    0.000
3520 P -92.565 34.375 45.840 NIL 172 C_172    0.000
3521 O1P -92.233 35.785 46.142 NIL 172 C_172    0.000
3522 O2P -93.604 34.128 44.815 NIL 172 C_172    0.000
3523 O5* -91.172 33.679 45.473 NIL 172 C_172    0.000
3524 C5* -90.248 33.368 46.531 NIL 172 C_172    0.000
3525 C4* -89.003 32.718 45.958 NIL 172 C_172    0.000
3526 O4* -89.327 31.335 45.830 NIL 172 C_172    0.000
3527 C1* -89.438 30.933 44.480 NIL 172 C_172    0.000
3528 N1 -90.711 30.165 44.388 NIL 172 C_172    0.000
3529 C6 -91.908 30.803 44.287 NIL 172 C_172    0.000
3530 C5 -93.069 30.104 44.204 NIL 172 C_172    0.000
3531 C4 -92.967 28.674 44.227 NIL 172 C_172    0.000
3532 N4 -94.060 27.929 44.149 NIL 172 C_172    0.000
3533 N3 -91.784 28.057 44.326 NIL 172 C_172    0.000
3534 C2 -90.634 28.775 44.409 NIL 172 C_172    0.000
3535 O2 -89.522 28.240 44.503 NIL 172 C_172    0.000
3536 C3* -88.614 33.157 44.547 NIL 172 C_172    0.000
3537 C2* -89.437 32.220 43.663 NIL 172 C_172    0.000
3538 O3* -87.232 32.951 44.290 NIL 172 C_172    0.000
3539 P -88.771 18.235 46.104 NIL 173 G_173    0.000
3540 O1P -87.823 17.126 45.853 NIL 173 G_173    0.000
3541 O2P -89.885 17.974 47.042 NIL 173 G_173    0.000
3542 O5* -87.867 19.472 46.563 NIL 173 G_173    0.000
3543 C5* -87.101 20.181 45.573 NIL 173 G_173    0.000
3544 C4* -86.324 21.309 46.227 NIL 173 G_173    0.000
3545 O4* -87.239 22.399 46.305 NIL 173 G_173    0.000
3546 C1* -87.620 22.686 47.636 NIL 173 G_173    0.000
3547 N9 -89.105 22.803 47.617 NIL 173 G_173    0.000
3548 C8 -90.058 21.808 47.633 NIL 173 G_173    0.000
3549 N7 -91.291 22.250 47.607 NIL 173 G_173    0.000
3550 C5 -91.147 23.636 47.572 NIL 173 G_173    0.000
3551 C6 -92.131 24.657 47.535 NIL 173 G_173    0.000
3552 O6 -93.354 24.547 47.526 NIL 173 G_173    0.000
3553 N1 -91.546 25.931 47.507 NIL 173 G_173    0.000
3554 C2 -90.188 26.184 47.515 NIL 173 G_173    0.000
3555 N2 -89.832 27.470 47.485 NIL 173 G_173    0.000
3556 N3 -89.266 25.225 47.550 NIL 173 G_173    0.000
3557 C4 -89.815 23.983 47.578 NIL 173 G_173    0.000
3558 C3* -85.889 21.064 47.672 NIL 173 G_173    0.000
3559 C2* -87.108 21.519 48.474 NIL 173 G_173    0.000
3560 O3* -84.767 21.860 48.030 NIL 173 G_173    0.000
3561 P -97.651 32.880 48.880 NIL 174 C_174    0.000
3562 O1P -98.195 34.232 49.134 NIL 174 C_174    0.000
3563 O2P -98.389 32.020 47.928 NIL 174 C_174    0.000
3564 O5* -96.130 33.109 48.439 NIL 174 C_174    0.000
3565 C5* -95.158 33.452 49.442 NIL 174 C_174    0.000
3566 C4* -93.792 33.621 48.803 NIL 174 C_174    0.000
3567 O4* -93.250 32.305 48.722 NIL 174 C_174    0.000
3568 C1* -93.158 31.843 47.390 NIL 174 C_174    0.000
3569 N1 -93.744 30.473 47.394 NIL 174 C_174    0.000
3570 C6 -95.090 30.286 47.357 NIL 174 C_174    0.000
3571 C5 -95.624 29.038 47.361 NIL 174 C_174    0.000
3572 C4 -94.704 27.940 47.405 NIL 174 C_174    0.000
3573 N4 -95.156 26.695 47.410 NIL 174 C_174    0.000
3574 N3 -93.381 28.136 47.440 NIL 174 C_174    0.000
3575 C2 -92.867 29.392 47.436 NIL 174 C_174    0.000
3576 O2 -91.649 29.613 47.469 NIL 174 C_174    0.000
3577 C3* -93.791 34.129 47.362 NIL 174 C_174    0.000
3578 C2* -93.944 32.844 46.550 NIL 174 C_174    0.000
3579 O3* -92.562 34.756 47.021 NIL 174 C_174    0.000
3580 P -85.119 22.025 49.208 NIL 175 G_175    0.000
3581 O1P -83.713 21.667 48.919 NIL 175 G_175    0.000
3582 O2P -85.830 21.214 50.221 NIL 175 G_175    0.000
3583 O5* -85.093 23.580 49.586 NIL 175 G_175    0.000
3584 C5* -84.928 24.549 48.536 NIL 175 G_175    0.000
3585 C4* -84.933 25.950 49.118 NIL 175 G_175    0.000
3586 O4* -86.309 26.305 49.233 NIL 175 G_175    0.000
3587 C1* -86.731 26.385 50.579 NIL 175 G_175    0.000
3588 N9 -88.003 25.613 50.653 NIL 175 G_175    0.000
3589 C8 -88.191 24.251 50.748 NIL 175 G_175    0.000
3590 N7 -89.450 23.888 50.793 NIL 175 G_175    0.000
3591 C5 -90.145 25.094 50.722 NIL 175 G_175    0.000
3592 C6 -91.542 25.346 50.728 NIL 175 G_175    0.000
3593 O6 -92.468 24.543 50.799 NIL 175 G_175    0.000
3594 N1 -91.814 26.718 50.640 NIL 175 G_175    0.000
3595 C2 -90.863 27.716 50.556 NIL 175 G_175    0.000
3596 N2 -91.329 28.965 50.479 NIL 175 G_175    0.000
3597 N3 -89.553 27.479 50.550 NIL 175 G_175    0.000
3598 C4 -89.271 26.153 50.636 NIL 175 G_175    0.000
3599 C3* -84.378 26.082 50.536 NIL 175 G_175    0.000
3600 C2* -85.599 25.783 51.405 NIL 175 G_175    0.000
3601 O3* -83.921 27.400 50.807 NIL 175 G_175    0.000
3602 P -100.770 28.861 52.266 NIL 176 C_176    0.000
3603 O1P -101.993 29.653 52.528 NIL 176 C_176    0.000
3604 O2P -100.903 27.684 51.379 NIL 176 C_176    0.000
3605 O5* -99.691 29.911 51.724 NIL 176 C_176    0.000
3606 C5* -99.064 30.809 52.657 NIL 176 C_176    0.000
3607 C4* -98.082 31.709 51.929 NIL 176 C_176    0.000
3608 O4* -96.876 30.954 51.839 NIL 176 C_176    0.000
3609 C1* -96.586 30.563 50.513 NIL 176 C_176    0.000
3610 N1 -96.258 29.112 50.580 NIL 176 C_176    0.000
3611 C6 -97.240 28.173 50.632 NIL 176 C_176    0.000
3612 C5 -96.942 26.850 50.694 NIL 176 C_176    0.000
3613 C4 -95.553 26.499 50.700 NIL 176 C_176    0.000
3614 N4 -95.189 25.226 50.758 NIL 176 C_176    0.000
3615 N3 -94.594 27.431 50.647 NIL 176 C_176    0.000
3616 C2 -94.914 28.749 50.587 NIL 176 C_176    0.000
3617 O2 -94.055 29.640 50.538 NIL 176 C_176    0.000
3618 C3* -98.438 32.046 50.482 NIL 176 C_176    0.000
3619 C2* -97.842 30.872 49.705 NIL 176 C_176    0.000
3620 O3* -97.823 33.253 50.052 NIL 176 C_176    0.000
3621 P -84.256 27.391 52.002 NIL 177 G_177    0.000
3622 O1P -82.919 27.906 51.631 NIL 177 G_177    0.000
3623 O2P -84.316 26.372 53.073 NIL 177 G_177    0.000
3624 O5* -85.129 28.686 52.347 NIL 177 G_177    0.000
3625 C5* -85.606 29.513 51.271 NIL 177 G_177    0.000
3626 C4* -86.406 30.677 51.825 NIL 177 G_177    0.000
3627 O4* -87.723 30.167 52.021 NIL 177 G_177    0.000
3628 C1* -88.057 30.056 53.390 NIL 177 G_177    0.000
3629 N9 -88.632 28.692 53.558 NIL 177 G_177    0.000
3630 C8 -87.983 27.484 53.692 NIL 177 G_177    0.000
3631 N7 -88.788 26.458 53.823 NIL 177 G_177    0.000
3632 C5 -90.061 27.026 53.774 NIL 177 G_177    0.000
3633 C6 -91.338 26.416 53.864 NIL 177 G_177    0.000
3634 O6 -91.615 25.229 54.009 NIL 177 G_177    0.000
3635 N1 -92.366 27.364 53.767 NIL 177 G_177    0.000
3636 C2 -92.183 28.724 53.604 NIL 177 G_177    0.000
3637 N2 -93.295 29.460 53.533 NIL 177 G_177    0.000
3638 N3 -90.984 29.295 53.520 NIL 177 G_177    0.000
3639 C4 -89.976 28.390 53.613 NIL 177 G_177    0.000
3640 C3* -85.977 31.181 53.203 NIL 177 G_177    0.000
3641 C2* -86.755 30.272 54.153 NIL 177 G_177    0.000
3642 O3* -86.368 32.531 53.419 NIL 177 G_177    0.000
3643 P -100.807 23.962 55.919 NIL 178 C_178    0.000
3644 O1P -102.250 23.905 56.243 NIL 178 C_178    0.000
3645 O2P -100.261 22.884 55.064 NIL 178 C_178    0.000
3646 O5* -100.570 25.414 55.290 NIL 178 C_178    0.000
3647 C5* -100.549 26.557 56.163 NIL 178 C_178    0.000
3648 C4* -100.311 27.821 55.358 NIL 178 C_178    0.000
3649 O4* -98.896 27.908 55.205 NIL 178 C_178    0.000
3650 C1* -98.486 27.691 53.871 NIL 178 C_178    0.000
3651 N1 -97.368 26.709 53.944 NIL 178 C_178    0.000
3652 C6 -97.612 25.378 54.077 NIL 178 C_178    0.000
3653 C5 -96.593 24.483 54.145 NIL 178 C_178    0.000
3654 C4 -95.262 25.009 54.069 NIL 178 C_178    0.000
3655 N4 -94.221 24.193 54.128 NIL 178 C_178    0.000
3656 N3 -95.034 26.321 53.938 NIL 178 C_178    0.000
3657 C2 -96.067 27.200 53.873 NIL 178 C_178    0.000
3658 O2 -95.895 28.420 53.752 NIL 178 C_178    0.000
3659 C3* -100.855 27.811 53.929 NIL 178 C_178    0.000
3660 C2* -99.717 27.165 53.139 NIL 178 C_178    0.000
3661 O3* -101.081 29.125 53.438 NIL 178 C_178    0.000
3662 P -86.585 32.391 54.633 NIL 179 G_179    0.000
3663 O1P -85.818 33.569 54.167 NIL 179 G_179    0.000
3664 O2P -85.993 31.586 55.724 NIL 179 G_179    0.000
3665 O5* -88.036 32.949 55.008 NIL 179 G_179    0.000
3666 C5* -88.950 33.285 53.949 NIL 179 G_179    0.000
3667 C4* -90.256 33.790 54.531 NIL 179 G_179    0.000
3668 O4* -91.016 32.619 54.820 NIL 179 G_179    0.000
3669 C1* -91.167 32.406 56.208 NIL 179 G_179    0.000
3670 N9 -90.827 30.975 56.439 NIL 179 G_179    0.000
3671 C8 -89.589 30.381 56.554 NIL 179 G_179    0.000
3672 N7 -89.635 29.087 56.756 NIL 179 G_179    0.000
3673 C5 -91.000 28.802 56.777 NIL 179 G_179    0.000
3674 C6 -91.673 27.567 56.960 NIL 179 G_179    0.000
3675 O6 -91.197 26.450 57.145 NIL 179 G_179    0.000
3676 N1 -93.065 27.731 56.910 NIL 179 G_179    0.000
3677 C2 -93.719 28.931 56.710 NIL 179 G_179    0.000
3678 N2 -95.053 28.875 56.696 NIL 179 G_179    0.000
3679 N3 -93.086 30.089 56.539 NIL 179 G_179    0.000
3680 C4 -91.736 29.948 56.585 NIL 179 G_179    0.000
3681 C3* -90.149 34.522 55.868 NIL 179 G_179    0.000
3682 C2* -90.208 33.381 56.883 NIL 179 G_179    0.000
3683 O3* -91.246 35.399 56.083 NIL 179 G_179    0.000
3684 P -97.820 20.163 59.659 NIL 180 C_180    0.000
3685 O1P -98.942 19.291 60.075 NIL 180 C_180    0.000
3686 O2P -96.782 19.562 58.792 NIL 180 C_180    0.000
3687 O5* -98.504 21.445 58.989 NIL 180 C_180    0.000
3688 C5* -99.121 22.429 59.837 NIL 180 C_180    0.000
3689 C4* -99.701 23.550 58.994 NIL 180 C_180    0.000
3690 O4* -98.612 24.438 58.751 NIL 180 C_180    0.000
3691 C1* -98.207 24.431 57.397 NIL 180 C_180    0.000
3692 N1 -96.724 24.291 57.418 NIL 180 C_180    0.000
3693 C6 -96.136 23.077 57.591 NIL 180 C_180    0.000
3694 C5 -94.785 22.949 57.611 NIL 180 C_180    0.000
3695 C4 -94.019 24.148 57.440 NIL 180 C_180    0.000
3696 N4 -92.695 24.097 57.448 NIL 180 C_180    0.000
3697 N3 -94.607 25.338 57.270 NIL 180 C_180    0.000
3698 C2 -95.961 25.444 57.254 NIL 180 C_180    0.000
3699 O2 -96.541 26.527 57.100 NIL 180 C_180    0.000
3700 C3* -100.193 23.149 57.604 NIL 180 C_180    0.000
3701 C2* -98.925 23.249 56.755 NIL 180 C_180    0.000
3702 O3* -101.165 24.057 57.103 NIL 180 C_180    0.000
3703 P -91.291 35.223 57.311 NIL 181 G_181    0.000
3704 O1P -91.379 36.600 56.775 NIL 181 G_181    0.000
3705 O2P -90.296 34.973 58.378 NIL 181 G_181    0.000
3706 O5* -92.778 34.849 57.767 NIL 181 G_181    0.000
3707 C5* -93.757 34.532 56.762 NIL 181 G_181    0.000
3708 C4* -95.087 34.210 57.416 NIL 181 G_181    0.000
3709 O4* -95.005 32.833 57.775 NIL 181 G_181    0.000
3710 C1* -94.946 32.645 59.174 NIL 181 G_181    0.000
3711 N9 -93.824 31.695 59.410 NIL 181 G_181    0.000
3712 C8 -92.469 31.942 59.457 NIL 181 G_181    0.000
3713 N7 -91.740 30.877 59.686 NIL 181 G_181    0.000
3714 C5 -92.678 29.852 59.800 NIL 181 G_181    0.000
3715 C6 -92.493 28.467 60.048 NIL 181 G_181    0.000
3716 O6 -91.446 27.850 60.223 NIL 181 G_181    0.000
3717 N1 -93.717 27.786 60.084 NIL 181 G_181    0.000
3718 C2 -94.958 28.366 59.903 NIL 181 G_181    0.000
3719 N2 -96.006 27.542 59.975 NIL 181 G_181    0.000
3720 N3 -95.130 29.665 59.670 NIL 181 G_181    0.000
3721 C4 -93.953 30.341 59.633 NIL 181 G_181    0.000
3722 C3* -95.374 34.936 58.730 NIL 181 G_181    0.000
3723 C2* -94.713 34.030 59.768 NIL 181 G_181    0.000
3724 O3* -96.767 35.018 58.997 NIL 181 G_181    0.000
3725 P -93.027 19.022 63.272 NIL 182 C_182    0.000
3726 O1P -93.408 17.683 63.776 NIL 182 C_182    0.000
3727 O2P -91.870 19.095 62.353 NIL 182 C_182    0.000
3728 O5* -94.358 19.627 62.623 NIL 182 C_182    0.000
3729 C5* -95.399 20.109 63.490 NIL 182 C_182    0.000
3730 C4* -96.559 20.636 62.665 NIL 182 C_182    0.000
3731 O4* -96.207 21.977 62.336 NIL 182 C_182    0.000
3732 C1* -95.930 22.137 60.959 NIL 182 C_182    0.000
3733 N1 -94.646 22.890 60.888 NIL 182 C_182    0.000
3734 C6 -93.453 22.258 61.047 NIL 182 C_182    0.000
3735 C5 -92.283 22.943 60.983 NIL 182 C_182    0.000
3736 C4 -92.371 24.353 60.742 NIL 182 C_182    0.000
3737 N4 -91.269 25.084 60.666 NIL 182 C_182    0.000
3738 N3 -93.551 24.966 60.587 NIL 182 C_182    0.000
3739 C2 -94.710 24.261 60.655 NIL 182 C_182    0.000
3740 O2 -95.820 24.792 60.517 NIL 182 C_182    0.000
3741 C3* -96.779 19.951 61.316 NIL 182 C_182    0.000
3742 C2* -95.845 20.726 60.387 NIL 182 C_182    0.000
3743 O3* -98.118 20.092 60.862 NIL 182 C_182    0.000
3744 P -96.651 34.914 60.229 NIL 183 G_183    0.000
3745 O1P -97.550 35.951 59.674 NIL 183 G_183    0.000
3746 O2P -95.656 35.348 61.235 NIL 183 G_183    0.000
3747 O5* -97.617 33.767 60.786 NIL 183 G_183    0.000
3748 C5* -98.265 32.887 59.851 NIL 183 G_183    0.000
3749 C4* -99.128 31.884 60.594 NIL 183 G_183    0.000
3750 O4* -98.240 30.834 60.974 NIL 183 G_183    0.000
3751 C1* -98.027 30.790 62.370 NIL 183 G_183    0.000
3752 N9 -96.552 30.688 62.552 NIL 183 G_183    0.000
3753 C8 -95.597 31.680 62.507 NIL 183 G_183    0.000
3754 N7 -94.375 31.254 62.710 NIL 183 G_183    0.000
3755 C5 -94.529 29.882 62.902 NIL 183 G_183    0.000
3756 C6 -93.558 28.881 63.164 NIL 183 G_183    0.000
3757 O6 -92.342 29.001 63.284 NIL 183 G_183    0.000
3758 N1 -94.150 27.616 63.291 NIL 183 G_183    0.000
3759 C2 -95.501 27.353 63.178 NIL 183 G_183    0.000
3760 N2 -95.864 26.078 63.333 NIL 183 G_183    0.000
3761 N3 -96.410 28.294 62.932 NIL 183 G_183    0.000
3762 C4 -95.855 29.527 62.807 NIL 183 G_183    0.000
3763 C3* -99.732 32.374 61.910 NIL 183 G_183    0.000
3764 C2* -98.624 32.081 62.921 NIL 183 G_183    0.000
3765 O3* -100.897 31.642 62.264 NIL 183 G_183    0.000
3766 P -88.331 21.084 66.595 NIL 184 C_184    0.000
3767 O1P -87.836 19.803 67.147 NIL 184 C_184    0.000
3768 O2P -87.474 21.770 65.603 NIL 184 C_184    0.000
3769 O5* -89.789 20.764 66.020 NIL 184 C_184    0.000
3770 C5* -90.880 20.593 66.942 NIL 184 C_184    0.000
3771 C4* -92.160 20.299 66.183 NIL 184 C_184    0.000
3772 O4* -92.674 21.575 65.806 NIL 184 C_184    0.000
3773 C1* -92.599 21.793 64.413 NIL 184 C_184    0.000
3774 N1 -92.003 23.149 64.246 NIL 184 C_184    0.000
3775 C6 -90.660 23.341 64.340 NIL 184 C_184    0.000
3776 C5 -90.117 24.576 64.189 NIL 184 C_184    0.000
3777 C4 -91.024 25.654 63.927 NIL 184 C_184    0.000
3778 N4 -90.562 26.886 63.768 NIL 184 C_184    0.000
3779 N3 -92.344 25.454 63.836 NIL 184 C_184    0.000
3780 C2 -92.867 24.210 63.991 NIL 184 C_184    0.000
3781 O2 -94.082 23.986 63.914 NIL 184 C_184    0.000
3782 C3* -91.992 19.545 64.864 NIL 184 C_184    0.000
3783 C2* -91.727 20.669 63.863 NIL 184 C_184    0.000
3784 O3* -93.178 18.855 64.493 NIL 184 C_184    0.000
3785 P -100.692 31.690 63.487 NIL 185 G_185    0.000
3786 O1P -102.050 31.977 62.971 NIL 185 G_185    0.000
3787 O2P -100.100 32.675 64.419 NIL 185 G_185    0.000
3788 O5* -100.781 30.226 64.126 NIL 185 G_185    0.000
3789 C5* -100.828 29.085 63.251 NIL 185 G_185    0.000
3790 C4* -100.909 27.809 64.067 NIL 185 G_185    0.000
3791 O4* -99.561 27.495 64.409 NIL 185 G_185    0.000
3792 C1* -99.305 27.658 65.789 NIL 185 G_185    0.000
3793 N9 -98.044 28.445 65.879 NIL 185 G_185    0.000
3794 C8 -97.854 29.804 65.755 NIL 185 G_185    0.000
3795 N7 -96.606 30.182 65.887 NIL 185 G_185    0.000
3796 C5 -95.920 28.990 66.115 NIL 185 G_185    0.000
3797 C6 -94.537 28.759 66.334 NIL 185 G_185    0.000
3798 O6 -93.618 29.572 66.374 NIL 185 G_185    0.000
3799 N1 -94.271 27.396 66.522 NIL 185 G_185    0.000
3800 C2 -95.216 26.388 66.501 NIL 185 G_185    0.000
3801 N2 -94.757 25.151 66.702 NIL 185 G_185    0.000
3802 N3 -96.512 26.607 66.295 NIL 185 G_185    0.000
3803 C4 -96.789 27.924 66.111 NIL 185 G_185    0.000
3804 C3* -101.632 27.923 65.409 NIL 185 G_185    0.000
3805 C2* -100.522 28.384 66.353 NIL 185 G_185    0.000
3806 O3* -102.133 26.668 65.850 NIL 185 G_185    0.000
3807 P -85.601 25.669 69.572 NIL 186 C_186    0.000
3808 O1P -84.428 24.949 70.116 NIL 186 C_186    0.000
3809 O2P -85.349 26.673 68.515 NIL 186 C_186    0.000
3810 O5* -86.618 24.529 69.098 NIL 186 C_186    0.000
3811 C5* -87.363 23.802 70.090 NIL 186 C_186    0.000
3812 C4* -88.259 22.778 69.420 NIL 186 C_186    0.000
3813 O4* -89.437 23.492 69.053 NIL 186 C_186    0.000
3814 C1* -89.561 23.640 67.653 NIL 186 C_186    0.000
3815 N1 -89.878 25.077 67.423 NIL 186 C_186    0.000
3816 C6 -88.900 26.021 67.428 NIL 186 C_186    0.000
3817 C5 -89.189 27.331 67.219 NIL 186 C_186    0.000
3818 C4 -90.565 27.662 66.995 NIL 186 C_186    0.000
3819 N4 -90.919 28.921 66.783 NIL 186 C_186    0.000
3820 N3 -91.521 26.725 66.992 NIL 186 C_186    0.000
3821 C2 -91.210 25.420 67.203 NIL 186 C_186    0.000
3822 O2 -92.065 24.526 67.208 NIL 186 C_186    0.000
3823 C3* -87.735 22.195 68.108 NIL 186 C_186    0.000
3824 C2* -88.219 23.208 67.070 NIL 186 C_186    0.000
3825 O3* -88.306 20.924 67.826 NIL 186 C_186    0.000
3826 P -101.945 26.891 67.056 NIL 187 G_187    0.000
3827 O1P -103.233 26.305 66.622 NIL 187 G_187    0.000
3828 O2P -102.005 28.084 67.930 NIL 187 G_187    0.000
3829 O5* -101.134 25.687 67.727 NIL 187 G_187    0.000
3830 C5* -100.540 24.688 66.879 NIL 187 G_187    0.000
3831 C4* -99.825 23.649 67.722 NIL 187 G_187    0.000
3832 O4* -98.536 24.200 67.984 NIL 187 G_187    0.000
3833 C1* -98.369 24.553 69.341 NIL 187 G_187    0.000
3834 N9 -97.804 25.932 69.336 NIL 187 G_187    0.000
3835 C8 -98.451 27.137 69.175 NIL 187 G_187    0.000
3836 N7 -97.657 28.179 69.220 NIL 187 G_187    0.000
3837 C5 -96.394 27.625 69.426 NIL 187 G_187    0.000
3838 C6 -95.130 28.256 69.561 NIL 187 G_187    0.000
3839 O6 -94.860 29.453 69.527 NIL 187 G_187    0.000
3840 N1 -94.109 27.316 69.758 NIL 187 G_187    0.000
3841 C2 -94.285 25.947 69.815 NIL 187 G_187    0.000
3842 N2 -93.181 25.222 70.011 NIL 187 G_187    0.000
3843 N3 -95.471 25.357 69.689 NIL 187 G_187    0.000
3844 C4 -96.474 26.253 69.498 NIL 187 G_187    0.000
3845 C3* -100.423 23.391 69.105 NIL 187 G_187    0.000
3846 C2* -99.756 24.462 69.968 NIL 187 G_187    0.000
3847 O3* -100.076 22.105 69.601 NIL 187 G_187    0.000
3848 P -85.954 31.135 72.283 NIL 188 C_188    0.000
3849 O1P -84.561 31.264 72.764 NIL 188 C_188    0.000
3850 O2P -86.381 32.039 71.192 NIL 188 C_188    0.000
3851 O5* -86.129 29.592 71.895 NIL 188 C_188    0.000
3852 C5* -86.267 28.621 72.947 NIL 188 C_188    0.000
3853 C4* -86.420 27.232 72.354 NIL 188 C_188    0.000
3854 O4* -87.807 27.105 72.049 NIL 188 C_188    0.000
3855 C1* -88.050 27.079 70.658 NIL 188 C_188    0.000
3856 N1 -89.158 28.046 70.421 NIL 188 C_188    0.000
3857 C6 -88.918 29.383 70.346 NIL 188 C_188    0.000
3858 C5 -89.928 30.265 70.131 NIL 188 C_188    0.000
3859 C4 -91.245 29.719 69.989 NIL 188 C_188    0.000
3860 N4 -92.277 30.521 69.776 NIL 188 C_188    0.000
3861 N3 -91.470 28.401 70.064 NIL 188 C_188    0.000
3862 C2 -90.446 27.536 70.280 NIL 188 C_188    0.000
3863 O2 -90.615 26.312 70.357 NIL 188 C_188    0.000
3864 C3* -85.707 26.997 71.023 NIL 188 C_188    0.000
3865 C2* -86.735 27.481 69.999 NIL 188 C_188    0.000
3866 O3* -85.438 25.619 70.802 NIL 188 C_188    0.000
3867 P -100.006 22.458 70.789 NIL 189 G_189    0.000
3868 O1P -100.723 21.209 70.449 NIL 189 G_189    0.000
3869 O2P -100.717 23.436 71.642 NIL 189 G_189    0.000
3870 O5* -98.617 21.990 71.429 NIL 189 G_189    0.000
3871 C5* -97.586 21.483 70.564 NIL 189 G_189    0.000
3872 C4* -96.364 21.103 71.380 NIL 189 G_189    0.000
3873 O4* -95.632 22.314 71.548 NIL 189 G_189    0.000
3874 C1* -95.649 22.770 72.886 NIL 189 G_189    0.000
3875 N9 -95.999 24.216 72.818 NIL 189 G_189    0.000
3876 C8 -97.235 24.808 72.675 NIL 189 G_189    0.000
3877 N7 -97.200 26.118 72.650 NIL 189 G_189    0.000
3878 C5 -95.845 26.416 72.786 NIL 189 G_189    0.000
3879 C6 -95.185 27.672 72.828 NIL 189 G_189    0.000
3880 O6 -95.669 28.798 72.755 NIL 189 G_189    0.000
3881 N1 -93.800 27.516 72.977 NIL 189 G_189    0.000
3882 C2 -93.139 26.307 73.072 NIL 189 G_189    0.000
3883 N2 -91.813 26.374 73.211 NIL 189 G_189    0.000
3884 N3 -93.759 25.130 73.032 NIL 189 G_189    0.000
3885 C4 -95.103 25.262 72.889 NIL 189 G_189    0.000
3886 C3* -96.641 20.617 72.802 NIL 189 G_189    0.000
3887 C2* -96.693 21.919 73.600 NIL 189 G_189    0.000
3888 O3* -95.587 19.803 73.299 NIL 189 G_189    0.000
3889 P -89.330 35.501 74.906 NIL 190 C_190    0.000
3890 O1P -88.258 36.444 75.295 NIL 190 C_190    0.000
3891 O2P -90.249 35.928 73.828 NIL 190 C_190    0.000
3892 O5* -88.585 34.128 74.559 NIL 190 C_190    0.000
3893 C5* -88.085 33.316 75.636 NIL 190 C_190    0.000
3894 C4* -87.420 32.070 75.081 NIL 190 C_190    0.000
3895 O4* -88.481 31.142 74.867 NIL 190 C_190    0.000
3896 C1* -88.719 30.906 73.495 NIL 190 C_190    0.000
3897 N1 -90.192 31.031 73.311 NIL 190 C_190    0.000
3898 C6 -90.783 32.250 73.195 NIL 190 C_190    0.000
3899 C5 -92.125 32.365 73.028 NIL 190 C_190    0.000
3900 C4 -92.878 31.146 72.980 NIL 190 C_190    0.000
3901 N4 -94.192 31.184 72.819 NIL 190 C_190    0.000
3902 N3 -92.286 29.951 73.095 NIL 190 C_190    0.000
3903 C2 -90.942 29.859 73.262 NIL 190 C_190    0.000
3904 O2 -90.359 28.772 73.372 NIL 190 C_190    0.000
3905 C3* -86.759 32.225 73.711 NIL 190 C_190    0.000
3906 C2* -87.916 31.964 72.746 NIL 190 C_190    0.000
3907 O3* -85.743 31.254 73.500 NIL 190 C_190    0.000
3908 P -95.690 20.193 74.473 NIL 191 G_191    0.000
3909 O1P -95.553 18.744 74.204 NIL 191 G_191    0.000
3910 O2P -96.803 20.616 75.351 NIL 191 G_191    0.000
3911 O5* -94.265 20.658 75.033 NIL 191 G_191    0.000
3912 C5* -93.168 20.803 74.114 NIL 191 G_191    0.000
3913 C4* -91.923 21.250 74.857 NIL 191 G_191    0.000
3914 O4* -92.033 22.668 74.956 NIL 191 G_191    0.000
3915 C1* -92.259 23.098 76.283 NIL 191 G_191    0.000
3916 N9 -93.392 24.062 76.210 NIL 191 G_191    0.000
3917 C8 -94.745 23.813 76.135 NIL 191 G_191    0.000
3918 N7 -95.484 24.894 76.083 NIL 191 G_191    0.000
3919 C5 -94.556 25.933 76.127 NIL 191 G_191    0.000
3920 C6 -94.755 27.338 76.103 NIL 191 G_191    0.000
3921 O6 -95.809 27.965 76.039 NIL 191 G_191    0.000
3922 N1 -93.537 28.028 76.166 NIL 191 G_191    0.000
3923 C2 -92.290 27.439 76.242 NIL 191 G_191    0.000
3924 N2 -91.249 28.273 76.295 NIL 191 G_191    0.000
3925 N3 -92.105 26.121 76.264 NIL 191 G_191    0.000
3926 C4 -93.276 25.436 76.204 NIL 191 G_191    0.000
3927 C3* -91.805 20.769 76.303 NIL 191 G_191    0.000
3928 C2* -92.578 21.836 77.078 NIL 191 G_191    0.000
3929 O3* -90.456 20.750 76.748 NIL 191 G_191    0.000
3930 P -94.514 37.208 77.655 NIL 192 C_192    0.000
3931 O1P -94.182 38.619 77.957 NIL 192 C_192    0.000
3932 O2P -95.552 36.962 76.629 NIL 192 C_192    0.000
3933 O5* -93.121 36.513 77.288 NIL 192 C_192    0.000
3934 C5* -92.197 36.202 78.346 NIL 192 C_192    0.000
3935 C4* -90.952 35.551 77.773 NIL 192 C_192    0.000
3936 O4* -91.275 34.169 77.645 NIL 192 C_192    0.000
3937 C1* -91.386 33.766 76.295 NIL 192 C_192    0.000
3938 N1 -92.659 32.999 76.203 NIL 192 C_192    0.000
3939 C6 -93.856 33.636 76.102 NIL 192 C_192    0.000
3940 C5 -95.017 32.937 76.019 NIL 192 C_192    0.000
3941 C4 -94.915 31.508 76.042 NIL 192 C_192    0.000
3942 N4 -96.008 30.763 75.964 NIL 192 C_192    0.000
3943 N3 -93.732 30.891 76.141 NIL 192 C_192    0.000
3944 C2 -92.582 31.609 76.224 NIL 192 C_192    0.000
3945 O2 -91.470 31.074 76.317 NIL 192 C_192    0.000
3946 C3* -90.562 35.990 76.362 NIL 192 C_192    0.000
3947 C2* -91.385 35.054 75.477 NIL 192 C_192    0.000
3948 O3* -89.180 35.785 76.104 NIL 192 C_192    0.000
3949 P -90.719 21.069 77.918 NIL 193 G_193    0.000
3950 O1P -89.771 19.960 77.668 NIL 193 G_193    0.000
3951 O2P -91.833 20.808 78.857 NIL 193 G_193    0.000
3952 O5* -89.815 22.306 78.378 NIL 193 G_193    0.000
3953 C5* -89.049 23.015 77.388 NIL 193 G_193    0.000
3954 C4* -88.273 24.142 78.042 NIL 193 G_193    0.000
3955 O4* -89.188 25.233 78.120 NIL 193 G_193    0.000
3956 C1* -89.568 25.520 79.450 NIL 193 G_193    0.000
3957 N9 -91.053 25.637 79.431 NIL 193 G_193    0.000
3958 C8 -92.006 24.641 79.448 NIL 193 G_193    0.000
3959 N7 -93.240 25.083 79.422 NIL 193 G_193    0.000
3960 C5 -93.095 26.469 79.387 NIL 193 G_193    0.000
3961 C6 -94.079 27.490 79.349 NIL 193 G_193    0.000
3962 O6 -95.302 27.381 79.341 NIL 193 G_193    0.000
3963 N1 -93.494 28.764 79.322 NIL 193 G_193    0.000
3964 C2 -92.136 29.018 79.329 NIL 193 G_193    0.000
3965 N2 -91.780 30.304 79.300 NIL 193 G_193    0.000
3966 N3 -91.214 28.059 79.365 NIL 193 G_193    0.000
3967 C4 -91.764 26.817 79.392 NIL 193 G_193    0.000
3968 C3* -87.837 23.898 79.486 NIL 193 G_193    0.000
3969 C2* -89.056 24.353 80.289 NIL 193 G_193    0.000
3970 O3* -86.715 24.693 79.844 NIL 193 G_193    0.000
3971 P -99.599 35.713 80.695 NIL 194 C_194    0.000
3972 O1P -100.144 37.066 80.949 NIL 194 C_194    0.000
3973 O2P -100.337 34.854 79.743 NIL 194 C_194    0.000
3974 O5* -98.079 35.943 80.254 NIL 194 C_194    0.000
3975 C5* -97.106 36.285 81.256 NIL 194 C_194    0.000
3976 C4* -95.740 36.454 80.618 NIL 194 C_194    0.000
3977 O4* -95.198 35.138 80.537 NIL 194 C_194    0.000
3978 C1* -95.106 34.677 79.205 NIL 194 C_194    0.000
3979 N1 -95.692 33.307 79.208 NIL 194 C_194    0.000
3980 C6 -97.038 33.120 79.172 NIL 194 C_194    0.000
3981 C5 -97.573 31.872 79.176 NIL 194 C_194    0.000
3982 C4 -96.653 30.774 79.219 NIL 194 C_194    0.000
3983 N4 -97.104 29.529 79.225 NIL 194 C_194    0.000
3984 N3 -95.329 30.969 79.255 NIL 194 C_194    0.000
3985 C2 -94.815 32.226 79.251 NIL 194 C_194    0.000
3986 O2 -93.598 32.446 79.284 NIL 194 C_194    0.000
3987 C3* -95.739 36.963 79.177 NIL 194 C_194    0.000
3988 C2* -95.893 35.677 78.364 NIL 194 C_194    0.000
3989 O3* -94.510 37.590 78.836 NIL 194 C_194    0.000
3990 P -87.067 24.859 81.023 NIL 195 G_195    0.000
3991 O1P -85.661 24.501 80.734 NIL 195 G_195    0.000
3992 O2P -87.779 24.048 82.036 NIL 195 G_195    0.000
3993 O5* -87.041 26.414 81.400 NIL 195 G_195    0.000
3994 C5* -86.876 27.383 80.350 NIL 195 G_195    0.000
3995 C4* -86.881 28.784 80.932 NIL 195 G_195    0.000
3996 O4* -88.257 29.138 81.048 NIL 195 G_195    0.000
3997 C1* -88.679 29.219 82.394 NIL 195 G_195    0.000
3998 N9 -89.951 28.446 82.467 NIL 195 G_195    0.000
3999 C8 -90.139 27.085 82.563 NIL 195 G_195    0.000
4000 N7 -91.398 26.722 82.608 NIL 195 G_195    0.000
4001 C5 -92.093 27.928 82.537 NIL 195 G_195    0.000
4002 C6 -93.490 28.179 82.543 NIL 195 G_195    0.000
4003 O6 -94.416 27.376 82.614 NIL 195 G_195    0.000
4004 N1 -93.763 29.552 82.454 NIL 195 G_195    0.000
4005 C2 -92.811 30.550 82.370 NIL 195 G_195    0.000
4006 N2 -93.277 31.798 82.294 NIL 195 G_195    0.000
4007 N3 -91.502 30.312 82.365 NIL 195 G_195    0.000
4008 C4 -91.219 28.987 82.451 NIL 195 G_195    0.000
4009 C3* -86.327 28.916 82.351 NIL 195 G_195    0.000
4010 C2* -87.548 28.616 83.220 NIL 195 G_195    0.000
4011 O3* -85.869 30.234 82.621 NIL 195 G_195    0.000
4012 P -102.719 31.695 84.081 NIL 196 C_196    0.000
4013 O1P -103.941 32.487 84.343 NIL 196 C_196    0.000
4014 O2P -102.851 30.518 83.194 NIL 196 C_196    0.000
4015 O5* -101.640 32.745 83.539 NIL 196 C_196    0.000
4016 C5* -101.012 33.643 84.471 NIL 196 C_196    0.000
4017 C4* -100.031 34.543 83.744 NIL 196 C_196    0.000
4018 O4* -98.825 33.788 83.654 NIL 196 C_196    0.000
4019 C1* -98.534 33.397 82.327 NIL 196 C_196    0.000
4020 N1 -98.206 31.945 82.394 NIL 196 C_196    0.000
4021 C6 -99.189 31.006 82.447 NIL 196 C_196    0.000
4022 C5 -98.890 29.683 82.509 NIL 196 C_196    0.000
4023 C4 -97.501 29.332 82.514 NIL 196 C_196    0.000
4024 N4 -97.138 28.060 82.573 NIL 196 C_196    0.000
4025 N3 -96.542 30.265 82.462 NIL 196 C_196    0.000
4026 C2 -96.862 31.583 82.401 NIL 196 C_196    0.000
4027 O2 -96.004 32.474 82.352 NIL 196 C_196    0.000
4028 C3* -100.386 34.880 82.296 NIL 196 C_196    0.000
4029 C2* -99.791 33.705 81.520 NIL 196 C_196    0.000
4030 O3* -99.771 36.087 81.866 NIL 196 C_196    0.000
4031 P -86.204 30.225 83.817 NIL 197 G_197    0.000
4032 O1P -84.867 30.740 83.445 NIL 197 G_197    0.000
4033 O2P -86.264 29.205 84.888 NIL 197 G_197    0.000
4034 O5* -87.077 31.520 84.162 NIL 197 G_197    0.000
4035 C5* -87.554 32.347 83.085 NIL 197 G_197    0.000
4036 C4* -88.354 33.510 83.640 NIL 197 G_197    0.000
4037 O4* -89.671 33.001 83.836 NIL 197 G_197    0.000
4038 C1* -90.006 32.890 85.204 NIL 197 G_197    0.000
4039 N9 -90.580 31.526 85.373 NIL 197 G_197    0.000
4040 C8 -89.932 30.318 85.506 NIL 197 G_197    0.000
4041 N7 -90.737 29.292 85.638 NIL 197 G_197    0.000
4042 C5 -92.009 29.860 85.589 NIL 197 G_197    0.000
4043 C6 -93.286 29.249 85.679 NIL 197 G_197    0.000
4044 O6 -93.563 28.062 85.824 NIL 197 G_197    0.000
4045 N1 -94.314 30.198 85.582 NIL 197 G_197    0.000
4046 C2 -94.132 31.557 85.418 NIL 197 G_197    0.000
4047 N2 -95.243 32.293 85.348 NIL 197 G_197    0.000
4048 N3 -92.932 32.129 85.334 NIL 197 G_197    0.000
4049 C4 -91.924 31.224 85.427 NIL 197 G_197    0.000
4050 C3* -87.925 34.015 85.017 NIL 197 G_197    0.000
4051 C2* -88.703 33.106 85.968 NIL 197 G_197    0.000
4052 O3* -88.316 35.364 85.233 NIL 197 G_197    0.000
4053 P -102.755 26.796 87.733 NIL 198 C_198    0.000
4054 O1P -104.198 26.739 88.057 NIL 198 C_198    0.000
4055 O2P -102.209 25.718 86.879 NIL 198 C_198    0.000
4056 O5* -102.518 28.248 87.105 NIL 198 C_198    0.000
4057 C5* -102.497 29.391 87.978 NIL 198 C_198    0.000
4058 C4* -102.259 30.655 87.173 NIL 198 C_198    0.000
4059 O4* -100.844 30.742 87.020 NIL 198 C_198    0.000
4060 C1* -100.434 30.524 85.686 NIL 198 C_198    0.000
4061 N1 -99.316 29.543 85.759 NIL 198 C_198    0.000
4062 C6 -99.560 28.211 85.892 NIL 198 C_198    0.000
4063 C5 -98.541 27.316 85.960 NIL 198 C_198    0.000
4064 C4 -97.211 27.843 85.883 NIL 198 C_198    0.000
4065 N4 -96.169 27.026 85.943 NIL 198 C_198    0.000
4066 N3 -96.982 29.155 85.752 NIL 198 C_198    0.000
4067 C2 -98.015 30.034 85.687 NIL 198 C_198    0.000
4068 O2 -97.844 31.254 85.567 NIL 198 C_198    0.000
4069 C3* -102.803 30.644 85.744 NIL 198 C_198    0.000
4070 C2* -101.665 29.999 84.954 NIL 198 C_198    0.000
4071 O3* -103.029 31.959 85.253 NIL 198 C_198    0.000
4072 P -88.533 35.225 86.447 NIL 199 G_199    0.000
4073 O1P -87.767 36.402 85.982 NIL 199 G_199    0.000
4074 O2P -87.941 34.420 87.539 NIL 199 G_199    0.000
4075 O5* -89.984 35.783 86.823 NIL 199 G_199    0.000
4076 C5* -90.898 36.119 85.763 NIL 199 G_199    0.000
4077 C4* -92.205 36.624 86.345 NIL 199 G_199    0.000
4078 O4* -92.965 35.453 86.634 NIL 199 G_199    0.000
4079 C1* -93.115 35.240 88.023 NIL 199 G_199    0.000
4080 N9 -92.775 33.808 88.254 NIL 199 G_199    0.000
4081 C8 -91.537 33.214 88.369 NIL 199 G_199    0.000
4082 N7 -91.583 31.920 88.571 NIL 199 G_199    0.000
4083 C5 -92.948 31.636 88.592 NIL 199 G_199    0.000
4084 C6 -93.621 30.400 88.774 NIL 199 G_199    0.000
4085 O6 -93.145 29.284 88.959 NIL 199 G_199    0.000
4086 N1 -95.013 30.564 88.725 NIL 199 G_199    0.000
4087 C2 -95.667 31.764 88.524 NIL 199 G_199    0.000
4088 N2 -97.001 31.709 88.511 NIL 199 G_199    0.000
4089 N3 -95.034 32.922 88.353 NIL 199 G_199    0.000
4090 C4 -93.684 32.782 88.399 NIL 199 G_199    0.000
4091 C3* -92.097 37.356 87.683 NIL 199 G_199    0.000
4092 C2* -92.156 36.215 88.698 NIL 199 G_199    0.000
4093 O3* -93.194 38.233 87.898 NIL 199 G_199    0.000
4094 P -99.769 22.996 91.473 NIL 200 C_200    0.000
4095 O1P -100.891 22.125 91.890 NIL 200 C_200    0.000
4096 O2P -98.730 22.396 90.607 NIL 200 C_200    0.000
4097 O5* -100.452 24.278 90.803 NIL 200 C_200    0.000
4098 C5* -101.069 25.263 91.651 NIL 200 C_200    0.000
4099 C4* -101.649 26.384 90.809 NIL 200 C_200    0.000
4100 O4* -100.560 27.271 90.565 NIL 200 C_200    0.000
4101 C1* -100.155 27.265 89.212 NIL 200 C_200    0.000
4102 N1 -98.672 27.125 89.232 NIL 200 C_200    0.000
4103 C6 -98.085 25.911 89.406 NIL 200 C_200    0.000
4104 C5 -96.733 25.783 89.425 NIL 200 C_200    0.000
4105 C4 -95.967 26.982 89.255 NIL 200 C_200    0.000
4106 N4 -94.643 26.931 89.263 NIL 200 C_200    0.000
4107 N3 -96.556 28.172 89.085 NIL 200 C_200    0.000
4108 C2 -97.909 28.278 89.069 NIL 200 C_200    0.000
4109 O2 -98.489 29.360 88.915 NIL 200 C_200    0.000
4110 C3* -102.141 25.983 89.418 NIL 200 C_200    0.000
4111 C2* -100.873 26.082 88.570 NIL 200 C_200    0.000
4112 O3* -103.113 26.890 88.918 NIL 200 C_200    0.000
4113 P -50.643 93.213 -71.835 NIL 201 G_201    0.000
4114 O1P -51.789 93.080 -70.907 NIL 201 G_201    0.000
4115 O2P -50.884 92.891 -73.259 NIL 201 G_201    0.000
4116 O5* -50.104 94.706 -71.633 NIL 201 G_201    0.000
4117 C5* -49.347 95.020 -70.451 NIL 201 G_201    0.000
4118 C4* -48.941 96.481 -70.468 NIL 201 G_201    0.000
4119 O4* -47.748 96.530 -71.248 NIL 201 G_201    0.000
4120 C1* -47.943 97.184 -72.486 NIL 201 G_201    0.000
4121 N9 -47.335 96.295 -73.515 NIL 201 G_201    0.000
4122 C8 -47.856 95.167 -74.109 NIL 201 G_201    0.000
4123 N7 -47.057 94.608 -74.985 NIL 201 G_201    0.000
4124 C5 -45.926 95.424 -74.971 NIL 201 G_201    0.000
4125 C6 -44.720 95.327 -75.711 NIL 201 G_201    0.000
4126 O6 -44.395 94.488 -76.547 NIL 201 G_201    0.000
4127 N1 -43.836 96.366 -75.387 NIL 201 G_201    0.000
4128 C2 -44.085 97.367 -74.468 NIL 201 G_201    0.000
4129 N2 -43.112 98.266 -74.303 NIL 201 G_201    0.000
4130 N3 -45.218 97.456 -73.774 NIL 201 G_201    0.000
4131 C4 -46.086 96.457 -74.076 NIL 201 G_201    0.000
4132 C3* -49.906 97.431 -71.177 NIL 201 G_201    0.000
4133 C2* -49.452 97.350 -72.634 NIL 201 G_201    0.000
4134 O3* -49.769 98.768 -70.715 NIL 201 G_201    0.000
4135 P -36.517 96.991 -81.174 NIL 202 C_202    0.000
4136 O1P -35.304 97.513 -81.842 NIL 202 C_202    0.000
4137 O2P -36.585 95.532 -80.938 NIL 202 C_202    0.000
4138 O5* -36.651 97.832 -79.819 NIL 202 C_202    0.000
4139 C5* -37.117 99.191 -79.885 NIL 202 C_202    0.000
4140 C4* -37.167 99.791 -78.493 NIL 202 C_202    0.000
4141 O4* -38.421 99.383 -77.952 NIL 202 C_202    0.000
4142 C1* -38.275 98.451 -76.901 NIL 202 C_202    0.000
4143 N1 -39.229 97.347 -77.200 NIL 202 C_202    0.000
4144 C6 -38.915 96.373 -78.096 NIL 202 C_202    0.000
4145 C5 -39.784 95.368 -78.370 NIL 202 C_202    0.000
4146 C4 -41.036 95.386 -77.673 NIL 202 C_202    0.000
4147 N4 -41.932 94.434 -77.891 NIL 202 C_202    0.000
4148 N3 -41.335 96.349 -76.793 NIL 202 C_202    0.000
4149 C2 -40.451 97.347 -76.534 NIL 202 C_202    0.000
4150 O2 -40.692 98.255 -75.728 NIL 202 C_202    0.000
4151 C3* -36.128 99.262 -77.505 NIL 202 C_202    0.000
4152 C2* -36.811 98.022 -76.928 NIL 202 C_202    0.000
4153 O3* -35.873 100.187 -76.457 NIL 202 C_202    0.000
4154 P -50.011 99.291 -71.815 NIL 203 G_203    0.000
4155 O1P -50.665 99.829 -70.601 NIL 203 G_203    0.000
4156 O2P -50.882 98.969 -72.967 NIL 203 G_203    0.000
4157 O5* -48.874 100.352 -72.191 NIL 203 G_203    0.000
4158 C5* -47.670 100.392 -71.405 NIL 203 G_203    0.000
4159 C4* -46.738 101.465 -71.936 NIL 203 G_203    0.000
4160 O4* -46.025 100.847 -73.005 NIL 203 G_203    0.000
4161 C1* -46.386 101.373 -74.266 NIL 203 G_203    0.000
4162 N9 -46.636 100.193 -75.141 NIL 203 G_203    0.000
4163 C8 -47.756 99.397 -75.230 NIL 203 G_203    0.000
4164 N7 -47.654 98.430 -76.109 NIL 203 G_203    0.000
4165 C5 -46.376 98.597 -76.640 NIL 203 G_203    0.000
4166 C6 -45.695 97.850 -77.636 NIL 203 G_203    0.000
4167 O6 -46.087 96.872 -78.266 NIL 203 G_203    0.000
4168 N1 -44.413 98.364 -77.872 NIL 203 G_203    0.000
4169 C2 -43.860 99.455 -77.231 NIL 203 G_203    0.000
4170 N2 -42.622 99.787 -77.601 NIL 203 G_203    0.000
4171 N3 -44.500 100.155 -76.297 NIL 203 G_203    0.000
4172 C4 -45.746 99.671 -76.055 NIL 203 G_203    0.000
4173 C3* -47.417 102.677 -72.573 NIL 203 G_203    0.000
4174 C2* -47.625 102.227 -74.019 NIL 203 G_203    0.000
4175 O3* -46.579 103.825 -72.554 NIL 203 G_203    0.000
4176 P -40.274 94.745 -85.437 NIL 204 C_204    0.000
4177 O1P -39.307 94.541 -86.539 NIL 204 C_204    0.000
4178 O2P -40.842 93.535 -84.802 NIL 204 C_204    0.000
4179 O5* -39.528 95.690 -84.385 NIL 204 C_204    0.000
4180 C5* -39.381 97.089 -84.685 NIL 204 C_204    0.000
4181 C4* -38.648 97.789 -83.556 NIL 204 C_204    0.000
4182 O4* -39.652 98.098 -82.592 NIL 204 C_204    0.000
4183 C1* -39.515 97.333 -81.411 NIL 204 C_204    0.000
4184 N1 -40.874 96.799 -81.114 NIL 204 C_204    0.000
4185 C6 -41.353 95.702 -81.760 NIL 204 C_204    0.000
4186 C5 -42.591 95.216 -81.490 NIL 204 C_204    0.000
4187 C4 -43.358 95.911 -80.499 NIL 204 C_204    0.000
4188 N4 -44.575 95.491 -80.185 NIL 204 C_204    0.000
4189 N3 -42.877 96.990 -79.869 NIL 204 C_204    0.000
4190 C2 -41.636 97.460 -80.155 NIL 204 C_204    0.000
4191 O2 -41.157 98.455 -79.594 NIL 204 C_204    0.000
4192 C3* -37.631 96.938 -82.797 NIL 204 C_204    0.000
4193 C2* -38.489 96.252 -81.734 NIL 204 C_204    0.000
4194 O3* -36.642 97.735 -82.159 NIL 204 C_204    0.000
4195 P -46.981 104.274 -73.640 NIL 205 G_205    0.000
4196 O1P -46.843 105.191 -72.486 NIL 205 G_205    0.000
4197 O2P -48.271 104.286 -74.363 NIL 205 G_205    0.000
4198 O5* -45.744 104.608 -74.598 NIL 205 G_205    0.000
4199 C5* -44.432 104.150 -74.228 NIL 205 G_205    0.000
4200 C4* -43.419 104.576 -75.274 NIL 205 G_205    0.000
4201 O4* -43.485 103.577 -76.289 NIL 205 G_205    0.000
4202 C1* -44.045 104.068 -77.490 NIL 205 G_205    0.000
4203 N9 -45.068 103.067 -77.900 NIL 205 G_205    0.000
4204 C8 -46.359 102.904 -77.447 NIL 205 G_205    0.000
4205 N7 -47.005 101.916 -78.018 NIL 205 G_205    0.000
4206 C5 -46.077 101.388 -78.914 NIL 205 G_205    0.000
4207 C6 -46.196 100.301 -79.818 NIL 205 G_205    0.000
4208 O6 -47.161 99.569 -80.019 NIL 205 G_205    0.000
4209 N1 -45.010 100.104 -80.540 NIL 205 G_205    0.000
4210 C2 -43.861 100.858 -80.406 NIL 205 G_205    0.000
4211 N2 -42.837 100.510 -81.188 NIL 205 G_205    0.000
4212 N3 -43.751 101.878 -79.558 NIL 205 G_205    0.000
4213 C4 -44.891 102.083 -78.849 NIL 205 G_205    0.000
4214 C3* -43.725 105.886 -75.999 NIL 205 G_205    0.000
4215 C2* -44.629 105.435 -77.146 NIL 205 G_205    0.000
4216 O3* -42.551 106.483 -76.533 NIL 205 G_205    0.000
4217 P -45.927 94.129 -87.675 NIL 206 C_206    0.000
4218 O1P -45.625 93.365 -88.906 NIL 206 C_206    0.000
4219 O2P -46.655 93.421 -86.599 NIL 206 C_206    0.000
4220 O5* -44.521 94.708 -87.178 NIL 206 C_206    0.000
4221 C5* -43.938 95.821 -87.879 NIL 206 C_206    0.000
4222 C4* -42.615 96.201 -87.241 NIL 206 C_206    0.000
4223 O4* -42.956 97.060 -86.154 NIL 206 C_206    0.000
4224 C1* -42.711 96.459 -84.899 NIL 206 C_206    0.000
4225 N1 -43.945 96.682 -84.095 NIL 206 C_206    0.000
4226 C6 -45.037 95.887 -84.252 NIL 206 C_206    0.000
4227 C5 -46.162 96.090 -83.519 NIL 206 C_206    0.000
4228 C4 -46.138 97.173 -82.582 NIL 206 C_206    0.000
4229 N4 -47.200 97.428 -81.833 NIL 206 C_206    0.000
4230 N3 -45.057 97.949 -82.435 NIL 206 C_206    0.000
4231 C2 -43.942 97.730 -83.178 NIL 206 C_206    0.000
4232 O2 -42.924 98.426 -83.071 NIL 206 C_206    0.000
4233 C3* -41.834 95.055 -86.599 NIL 206 C_206    0.000
4234 C2* -42.426 94.990 -85.191 NIL 206 C_206    0.000
4235 O3* -40.445 95.343 -86.511 NIL 206 C_206    0.000
4236 P -43.110 106.947 -77.540 NIL 207 G_207    0.000
4237 O1P -42.182 107.805 -76.769 NIL 207 G_207    0.000
4238 O2P -44.449 107.499 -77.842 NIL 207 G_207    0.000
4239 O5* -42.309 106.536 -78.863 NIL 207 G_207    0.000
4240 C5* -41.269 105.547 -78.769 NIL 207 G_207    0.000
4241 C4* -40.650 105.314 -80.134 NIL 207 G_207    0.000
4242 O4* -41.499 104.366 -80.775 NIL 207 G_207    0.000
4243 C1* -42.216 104.930 -81.854 NIL 207 G_207    0.000
4244 N9 -43.632 104.506 -81.667 NIL 207 G_207    0.000
4245 C8 -44.598 105.035 -80.840 NIL 207 G_207    0.000
4246 N7 -45.755 104.424 -80.912 NIL 207 G_207    0.000
4247 C5 -45.542 103.419 -81.854 NIL 207 G_207    0.000
4248 C6 -46.429 102.431 -82.353 NIL 207 G_207    0.000
4249 O6 -47.606 102.237 -82.064 NIL 207 G_207    0.000
4250 N1 -45.800 101.610 -83.299 NIL 207 G_207    0.000
4251 C2 -44.486 101.727 -83.708 NIL 207 G_207    0.000
4252 N2 -44.076 100.845 -84.622 NIL 207 G_207    0.000
4253 N3 -43.654 102.655 -83.239 NIL 207 G_207    0.000
4254 C4 -44.248 103.460 -82.321 NIL 207 G_207    0.000
4255 C3* -40.639 106.521 -81.073 NIL 207 G_207    0.000
4256 C2* -42.008 106.437 -81.747 NIL 207 G_207    0.000
4257 O3* -39.622 106.416 -82.060 NIL 207 G_207    0.000
4258 P -51.715 96.067 -87.961 NIL 208 C_208    0.000
4259 O1P -52.245 95.121 -88.969 NIL 208 C_208    0.000
4260 O2P -52.203 95.920 -86.572 NIL 208 C_208    0.000
4261 O5* -50.123 95.949 -88.062 NIL 208 C_208    0.000
4262 C5* -49.448 96.558 -89.176 NIL 208 C_208    0.000
4263 C4* -47.953 96.323 -89.068 NIL 208 C_208    0.000
4264 O4* -47.471 97.353 -88.208 NIL 208 C_208    0.000
4265 C1* -47.040 96.852 -86.959 NIL 208 C_208    0.000
4266 N1 -47.667 97.728 -85.931 NIL 208 C_208    0.000
4267 C6 -48.959 97.546 -85.548 NIL 208 C_208    0.000
4268 C5 -49.532 98.345 -84.612 NIL 208 C_208    0.000
4269 C4 -48.712 99.378 -84.053 NIL 208 C_208    0.000
4270 N4 -49.205 100.194 -83.134 NIL 208 C_208    0.000
4271 N3 -47.441 99.549 -84.437 NIL 208 C_208    0.000
4272 C2 -46.887 98.739 -85.376 NIL 208 C_208    0.000
4273 O2 -45.716 98.867 -85.757 NIL 208 C_208    0.000
4274 C3* -47.533 95.021 -88.385 NIL 208 C_208    0.000
4275 C2* -47.518 95.405 -86.906 NIL 208 C_208    0.000
4276 O3* -46.229 94.613 -88.778 NIL 208 C_208    0.000
4277 P -40.276 106.977 -82.954 NIL 209 G_209    0.000
4278 O1P -38.862 107.362 -82.743 NIL 209 G_209    0.000
4279 O2P -41.275 108.068 -83.003 NIL 209 G_209    0.000
4280 O5* -40.281 106.088 -84.284 NIL 209 G_209    0.000
4281 C5* -39.790 104.738 -84.222 NIL 209 G_209    0.000
4282 C4* -39.888 104.087 -85.589 NIL 209 G_209    0.000
4283 O4* -41.225 103.600 -85.677 NIL 209 G_209    0.000
4284 C1* -41.996 104.316 -86.620 NIL 209 G_209    0.000
4285 N9 -43.274 104.649 -85.931 NIL 209 G_209    0.000
4286 C8 -43.544 105.666 -85.041 NIL 209 G_209    0.000
4287 N7 -44.783 105.684 -84.612 NIL 209 G_209    0.000
4288 C5 -45.375 104.603 -85.263 NIL 209 G_209    0.000
4289 C6 -46.706 104.116 -85.200 NIL 209 G_209    0.000
4290 O6 -47.653 104.546 -84.547 NIL 209 G_209    0.000
4291 N1 -46.880 102.994 -86.023 NIL 209 G_209    0.000
4292 C2 -45.896 102.419 -86.804 NIL 209 G_209    0.000
4293 N2 -46.265 101.353 -87.518 NIL 209 G_209    0.000
4294 N3 -44.648 102.877 -86.862 NIL 209 G_209    0.000
4295 C4 -44.462 103.965 -86.070 NIL 209 G_209    0.000
4296 C3* -39.738 105.027 -86.785 NIL 209 G_209    0.000
4297 C2* -41.163 105.538 -86.993 NIL 209 G_209    0.000
4298 O3* -39.312 104.337 -87.952 NIL 209 G_209    0.000
4299 P -55.828 100.507 -87.113 NIL 210 C_210    0.000
4300 O1P -57.037 99.827 -87.630 NIL 210 C_210    0.000
4301 O2P -55.767 100.767 -85.658 NIL 210 C_210    0.000
4302 O5* -54.594 99.626 -87.624 NIL 210 C_210    0.000
4303 C5* -54.205 99.708 -89.007 NIL 210 C_210    0.000
4304 C4* -53.020 98.796 -89.267 NIL 210 C_210    0.000
4305 O4* -51.873 99.555 -88.895 NIL 210 C_210    0.000
4306 C1* -51.248 99.050 -87.733 NIL 210 C_210    0.000
4307 N1 -51.020 100.227 -86.850 NIL 210 C_210    0.000
4308 C6 -52.022 100.733 -86.082 NIL 210 C_210    0.000
4309 C5 -51.814 101.806 -85.277 NIL 210 C_210    0.000
4310 C4 -50.497 102.372 -85.280 NIL 210 C_210    0.000
4311 N4 -50.224 103.421 -84.518 NIL 210 C_210    0.000
4312 N3 -49.518 101.866 -86.039 NIL 210 C_210    0.000
4313 C2 -49.747 100.792 -86.838 NIL 210 C_210    0.000
4314 O2 -48.868 100.297 -87.554 NIL 210 C_210    0.000
4315 C3* -52.949 97.537 -88.403 NIL 210 C_210    0.000
4316 C2* -52.219 98.027 -87.152 NIL 210 C_210    0.000
4317 O3* -52.184 96.511 -89.021 NIL 210 C_210    0.000
4318 P -39.961 105.041 -88.741 NIL 211 G_211    0.000
4319 O1P -38.551 104.718 -89.054 NIL 211 G_211    0.000
4320 O2P -40.360 106.465 -88.802 NIL 211 G_211    0.000
4321 O5* -40.834 104.124 -89.719 NIL 211 G_211    0.000
4322 C5* -40.958 102.719 -89.432 NIL 211 G_211    0.000
4323 C4* -41.824 102.050 -90.481 NIL 211 G_211    0.000
4324 O4* -43.167 102.260 -90.050 NIL 211 G_211    0.000
4325 C1* -43.869 103.150 -90.894 NIL 211 G_211    0.000
4326 N9 -44.531 104.131 -89.990 NIL 211 G_211    0.000
4327 C8 -44.001 105.243 -89.374 NIL 211 G_211    0.000
4328 N7 -44.858 105.902 -88.633 NIL 211 G_211    0.000
4329 C5 -46.040 105.176 -88.768 NIL 211 G_211    0.000
4330 C6 -47.320 105.400 -88.199 NIL 211 G_211    0.000
4331 O6 -47.682 106.301 -87.448 NIL 211 G_211    0.000
4332 N1 -48.237 104.417 -88.599 NIL 211 G_211    0.000
4333 C2 -47.953 103.357 -89.438 NIL 211 G_211    0.000
4334 N2 -48.967 102.528 -89.699 NIL 211 G_211    0.000
4335 N3 -46.751 103.148 -89.971 NIL 211 G_211    0.000
4336 C4 -45.850 104.092 -89.594 NIL 211 G_211    0.000
4337 C3* -41.766 102.663 -91.880 NIL 211 G_211    0.000
4338 C2* -42.817 103.771 -91.808 NIL 211 G_211    0.000
4339 O3* -42.137 101.729 -92.885 NIL 211 G_211    0.000
4340 P -57.093 106.440 -86.383 NIL 212 C_212    0.000
4341 O1P -58.571 106.374 -86.329 NIL 212 C_212    0.000
4342 O2P -56.386 106.798 -85.134 NIL 212 C_212    0.000
4343 O5* -56.625 105.024 -86.962 NIL 212 C_212    0.000
4344 C5* -56.792 104.755 -88.365 NIL 212 C_212    0.000
4345 C4* -56.283 103.363 -88.690 NIL 212 C_212    0.000
4346 O4* -54.878 103.512 -88.882 NIL 212 C_212    0.000
4347 C1* -54.128 102.900 -87.852 NIL 212 C_212    0.000
4348 N1 -53.121 103.912 -87.428 NIL 212 C_212    0.000
4349 C6 -53.453 104.919 -86.576 NIL 212 C_212    0.000
4350 C5 -52.535 105.841 -86.190 NIL 212 C_212    0.000
4351 C4 -51.212 105.699 -86.720 NIL 212 C_212    0.000
4352 N4 -50.266 106.564 -86.385 NIL 212 C_212    0.000
4353 N3 -50.895 104.704 -87.557 NIL 212 C_212    0.000
4354 C2 -51.828 103.792 -87.932 NIL 212 C_212    0.000
4355 O2 -51.573 102.859 -88.705 NIL 212 C_212    0.000
4356 C3* -56.414 102.330 -87.571 NIL 212 C_212    0.000
4357 C2* -55.134 102.543 -86.763 NIL 212 C_212    0.000
4358 O3* -56.435 101.002 -88.076 NIL 212 C_212    0.000
4359 P -42.685 102.566 -93.619 NIL 213 G_213    0.000
4360 O1P -41.767 101.572 -94.218 NIL 213 G_213    0.000
4361 O2P -42.454 103.989 -93.952 NIL 213 G_213    0.000
4362 O5* -44.156 102.081 -94.019 NIL 213 G_213    0.000
4363 C5* -44.728 100.951 -93.336 NIL 213 G_213    0.000
4364 C4* -46.119 100.670 -93.871 NIL 213 G_213    0.000
4365 O4* -46.983 101.546 -93.152 NIL 213 G_213    0.000
4366 C1* -47.518 102.564 -93.973 NIL 213 G_213    0.000
4367 N9 -47.322 103.836 -93.222 NIL 213 G_213    0.000
4368 C8 -46.192 104.617 -93.111 NIL 213 G_213    0.000
4369 N7 -46.352 105.684 -92.368 NIL 213 G_213    0.000
4370 C5 -47.682 105.606 -91.957 NIL 213 G_213    0.000
4371 C6 -48.437 106.480 -91.132 NIL 213 G_213    0.000
4372 O6 -48.082 107.521 -90.587 NIL 213 G_213    0.000
4373 N1 -49.752 106.022 -90.971 NIL 213 G_213    0.000
4374 C2 -50.270 104.871 -91.533 NIL 213 G_213    0.000
4375 N2 -51.550 104.610 -91.258 NIL 213 G_213    0.000
4376 N3 -49.560 104.052 -92.306 NIL 213 G_213    0.000
4377 C4 -48.283 104.481 -92.473 NIL 213 G_213    0.000
4378 C3* -46.348 101.020 -95.341 NIL 213 G_213    0.000
4379 C2* -46.736 102.497 -95.280 NIL 213 G_213    0.000
4380 O3* -47.420 100.275 -95.904 NIL 213 G_213    0.000
4381 P -55.428 112.290 -86.977 NIL 214 C_214    0.000
4382 O1P -56.660 112.949 -86.491 NIL 214 C_214    0.000
4383 O2P -54.221 112.398 -86.128 NIL 214 C_214    0.000
4384 O5* -55.841 110.769 -87.254 NIL 214 C_214    0.000
4385 C5* -56.620 110.460 -88.423 NIL 214 C_214    0.000
4386 C4* -56.893 108.969 -88.485 NIL 214 C_214    0.000
4387 O4* -55.739 108.401 -89.100 NIL 214 C_214    0.000
4388 C1* -54.979 107.622 -88.199 NIL 214 C_214    0.000
4389 N1 -53.567 108.064 -88.372 NIL 214 C_214    0.000
4390 C6 -53.107 109.193 -87.770 NIL 214 C_214    0.000
4391 C5 -51.820 109.596 -87.928 NIL 214 C_214    0.000
4392 C4 -50.981 108.777 -88.752 NIL 214 C_214    0.000
4393 N4 -49.715 109.110 -88.949 NIL 214 C_214    0.000
4394 N3 -51.445 107.667 -89.339 NIL 214 C_214    0.000
4395 C2 -52.735 107.282 -89.169 NIL 214 C_214    0.000
4396 O2 -53.200 106.262 -89.696 NIL 214 C_214    0.000
4397 C3* -57.003 108.257 -87.137 NIL 214 C_214    0.000
4398 C2* -55.549 107.916 -86.815 NIL 214 C_214    0.000
4399 O3* -57.758 107.057 -87.231 NIL 214 C_214    0.000
4400 P -47.808 101.186 -96.653 NIL 215 G_215    0.000
4401 O1P -47.681 99.814 -97.192 NIL 215 G_215    0.000
4402 O2P -47.156 102.276 -97.413 NIL 215 G_215    0.000
4403 O5* -49.378 101.428 -96.470 NIL 215 G_215    0.000
4404 C5* -50.058 100.796 -95.371 NIL 215 G_215    0.000
4405 C4* -51.530 101.162 -95.392 NIL 215 G_215    0.000
4406 O4* -51.615 102.419 -94.726 NIL 215 G_215    0.000
4407 C1* -51.950 103.472 -95.607 NIL 215 G_215    0.000
4408 N9 -50.981 104.566 -95.320 NIL 215 G_215    0.000
4409 C8 -49.681 104.713 -95.753 NIL 215 G_215    0.000
4410 N7 -49.094 105.801 -95.316 NIL 215 G_215    0.000
4411 C5 -50.073 106.418 -94.540 NIL 215 G_215    0.000
4412 C6 -50.028 107.633 -93.808 NIL 215 G_215    0.000
4413 O6 -49.100 108.427 -93.692 NIL 215 G_215    0.000
4414 N1 -51.247 107.886 -93.162 NIL 215 G_215    0.000
4415 C2 -52.361 107.072 -93.215 NIL 215 G_215    0.000
4416 N2 -53.426 107.491 -92.529 NIL 215 G_215    0.000
4417 N3 -52.402 105.933 -93.903 NIL 215 G_215    0.000
4418 C4 -51.229 105.672 -94.537 NIL 215 G_215    0.000
4419 C3* -52.132 101.414 -96.774 NIL 215 G_215    0.000
4420 C2* -51.824 102.892 -97.012 NIL 215 G_215    0.000
4421 O3* -53.540 101.221 -96.783 NIL 215 G_215    0.000
4422 P -51.867 116.509 -89.597 NIL 216 C_216    0.000
4423 O1P -52.434 117.729 -88.981 NIL 216 C_216    0.000
4424 O2P -50.500 116.116 -89.188 NIL 216 C_216    0.000
4425 O5* -52.939 115.354 -89.318 NIL 216 C_216    0.000
4426 C5* -54.155 115.332 -90.087 NIL 216 C_216    0.000
4427 C4* -55.018 114.160 -89.658 NIL 216 C_216    0.000
4428 O4* -54.527 113.042 -90.395 NIL 216 C_216    0.000
4429 C1* -53.876 112.099 -89.569 NIL 216 C_216    0.000
4430 N1 -52.588 111.784 -90.249 NIL 216 C_216    0.000
4431 C6 -51.515 112.611 -90.136 NIL 216 C_216    0.000
4432 C5 -50.342 112.325 -90.756 NIL 216 C_216    0.000
4433 C4 -50.294 111.118 -91.527 NIL 216 C_216    0.000
4434 N4 -49.181 110.776 -92.158 NIL 216 C_216    0.000
4435 N3 -51.357 110.311 -91.632 NIL 216 C_216    0.000
4436 C2 -52.521 110.616 -91.004 NIL 216 C_216    0.000
4437 O2 -53.525 109.895 -91.078 NIL 216 C_216    0.000
4438 C3* -54.892 113.743 -88.193 NIL 216 C_216    0.000
4439 C2* -53.704 112.781 -88.217 NIL 216 C_216    0.000
4440 O3* -56.047 113.052 -87.737 NIL 216 C_216    0.000
4441 P -53.771 102.117 -97.610 NIL 217 G_217    0.000
4442 O1P -54.434 100.802 -97.766 NIL 217 G_217    0.000
4443 O2P -53.071 102.666 -98.792 NIL 217 G_217    0.000
4444 O5* -54.905 103.103 -97.063 NIL 217 G_217    0.000
4445 C5* -55.313 103.002 -95.687 NIL 217 G_217    0.000
4446 C4* -56.391 104.026 -95.389 NIL 217 G_217    0.000
4447 O4* -55.692 105.234 -95.097 NIL 217 G_217    0.000
4448 C1* -55.872 106.214 -96.100 NIL 217 G_217    0.000
4449 N9 -54.510 106.730 -96.411 NIL 217 G_217    0.000
4450 C8 -53.535 106.185 -97.217 NIL 217 G_217    0.000
4451 N7 -52.435 106.896 -97.281 NIL 217 G_217    0.000
4452 C5 -52.700 107.990 -96.459 NIL 217 G_217    0.000
4453 C6 -51.887 109.105 -96.131 NIL 217 G_217    0.000
4454 O6 -50.746 109.362 -96.505 NIL 217 G_217    0.000
4455 N1 -52.549 109.983 -95.261 NIL 217 G_217    0.000
4456 C2 -53.828 109.806 -94.771 NIL 217 G_217    0.000
4457 N2 -54.279 110.759 -93.953 NIL 217 G_217    0.000
4458 N3 -54.590 108.759 -95.080 NIL 217 G_217    0.000
4459 C4 -53.965 107.898 -95.923 NIL 217 G_217    0.000
4460 C3* -57.310 104.383 -96.558 NIL 217 G_217    0.000
4461 C2* -56.537 105.494 -97.269 NIL 217 G_217    0.000
4462 O3* -58.561 104.891 -96.114 NIL 217 G_217    0.000
4463 P -48.171 118.174 -94.169 NIL 218 C_218    0.000
4464 O1P -47.907 119.576 -93.777 NIL 218 C_218    0.000
4465 O2P -47.044 117.220 -94.074 NIL 218 C_218    0.000
4466 O5* -49.429 117.717 -93.293 NIL 218 C_218    0.000
4467 C5* -50.738 118.198 -93.649 NIL 218 C_218    0.000
4468 C4* -51.773 117.641 -92.689 NIL 218 C_218    0.000
4469 O4* -52.104 116.352 -93.200 NIL 218 C_218    0.000
4470 C1* -51.639 115.309 -92.367 NIL 218 C_218    0.000
4471 N1 -50.958 114.341 -93.271 NIL 218 C_218    0.000
4472 C6 -49.685 114.556 -93.698 NIL 218 C_218    0.000
4473 C5 -49.064 113.674 -94.522 NIL 218 C_218    0.000
4474 C4 -49.812 112.516 -94.914 NIL 218 C_218    0.000
4475 N4 -49.268 111.614 -95.716 NIL 218 C_218    0.000
4476 N3 -51.065 112.314 -94.487 NIL 218 C_218    0.000
4477 C2 -51.668 113.209 -93.664 NIL 218 C_218    0.000
4478 O2 -52.824 113.057 -93.249 NIL 218 C_218    0.000
4479 C3* -51.285 117.380 -91.264 NIL 218 C_218    0.000
4480 C2* -50.704 115.970 -91.359 NIL 218 C_218    0.000
4481 O3* -52.355 117.385 -90.328 NIL 218 C_218    0.000
4482 P -58.697 105.690 -97.054 NIL 219 G_219    0.000
4483 O1P -59.846 104.849 -96.650 NIL 219 G_219    0.000
4484 O2P -58.337 105.700 -98.490 NIL 219 G_219    0.000
4485 O5* -59.025 107.154 -96.500 NIL 219 G_219    0.000
4486 C5* -58.884 107.415 -95.092 NIL 219 G_219    0.000
4487 C4* -59.245 108.857 -94.793 NIL 219 G_219    0.000
4488 O4* -58.059 109.604 -95.054 NIL 219 G_219    0.000
4489 C1* -58.184 110.431 -96.192 NIL 219 G_219    0.000
4490 N9 -56.960 110.190 -97.006 NIL 219 G_219    0.000
4491 C8 -56.680 109.157 -97.874 NIL 219 G_219    0.000
4492 N7 -55.500 109.239 -98.438 NIL 219 G_219    0.000
4493 C5 -54.959 110.409 -97.908 NIL 219 G_219    0.000
4494 C6 -53.702 111.024 -98.142 NIL 219 G_219    0.000
4495 O6 -52.792 110.657 -98.880 NIL 219 G_219    0.000
4496 N1 -53.561 112.202 -97.395 NIL 219 G_219    0.000
4497 C2 -54.510 112.718 -96.534 NIL 219 G_219    0.000
4498 N2 -54.183 113.854 -95.915 NIL 219 G_219    0.000
4499 N3 -55.689 112.140 -96.315 NIL 219 G_219    0.000
4500 C4 -55.843 110.997 -97.032 NIL 219 G_219    0.000
4501 C3* -60.302 109.480 -95.704 NIL 219 G_219    0.000
4502 C2* -59.473 109.996 -96.881 NIL 219 G_219    0.000
4503 O3* -60.963 110.573 -95.081 NIL 219 G_219    0.000
4504 P -46.150 117.338 -99.875 NIL 220 C_220    0.000
4505 O1P -45.206 118.473 -99.973 NIL 220 C_220    0.000
4506 O2P -45.572 115.976 -99.846 NIL 220 C_220    0.000
4507 O5* -47.050 117.643 -98.588 NIL 220 C_220    0.000
4508 C5* -48.073 118.651 -98.676 NIL 220 C_220    0.000
4509 C4* -48.797 118.772 -97.348 NIL 220 C_220    0.000
4510 O4* -49.795 117.753 -97.371 NIL 220 C_220    0.000
4511 C1* -49.523 116.715 -96.452 NIL 220 C_220    0.000
4512 N1 -49.698 115.445 -97.210 NIL 220 C_220    0.000
4513 C6 -48.715 114.972 -98.022 NIL 220 C_220    0.000
4514 C5 -48.874 113.815 -98.715 NIL 220 C_220    0.000
4515 C4 -50.119 113.126 -98.545 NIL 220 C_220    0.000
4516 N4 -50.342 111.990 -99.190 NIL 220 C_220    0.000
4517 N3 -51.080 113.600 -97.743 NIL 220 C_220    0.000
4518 C2 -50.900 114.760 -97.060 NIL 220 C_220    0.000
4519 O2 -51.765 115.230 -96.310 NIL 220 C_220    0.000
4520 C3* -47.961 118.467 -96.105 NIL 220 C_220    0.000
4521 C2* -48.094 116.951 -95.971 NIL 220 C_220    0.000
4522 O3* -48.492 119.090 -94.943 NIL 220 C_220    0.000
4523 P -61.103 111.229 -96.125 NIL 221 G_221    0.000
4524 O1P -62.249 111.096 -95.197 NIL 221 G_221    0.000
4525 O2P -61.344 110.907 -97.549 NIL 221 G_221    0.000
4526 O5* -60.564 112.722 -95.923 NIL 221 G_221    0.000
4527 C5* -59.808 113.036 -94.741 NIL 221 G_221    0.000
4528 C4* -59.401 114.498 -94.758 NIL 221 G_221    0.000
4529 O4* -58.209 114.546 -95.538 NIL 221 G_221    0.000
4530 C1* -58.403 115.200 -96.776 NIL 221 G_221    0.000
4531 N9 -57.795 114.312 -97.805 NIL 221 G_221    0.000
4532 C8 -58.316 113.183 -98.399 NIL 221 G_221    0.000
4533 N7 -57.517 112.624 -99.275 NIL 221 G_221    0.000
4534 C5 -56.386 113.440 -99.261 NIL 221 G_221    0.000
4535 C6 -55.180 113.343 -100.001 NIL 221 G_221    0.000
4536 O6 -54.855 112.505 -100.837 NIL 221 G_221    0.000
4537 N1 -54.296 114.382 -99.677 NIL 221 G_221    0.000
4538 C2 -54.545 115.383 -98.758 NIL 221 G_221    0.000
4539 N2 -53.573 116.282 -98.593 NIL 221 G_221    0.000
4540 N3 -55.678 115.472 -98.064 NIL 221 G_221    0.000
4541 C4 -56.547 114.473 -98.366 NIL 221 G_221    0.000
4542 C3* -60.366 115.447 -95.467 NIL 221 G_221    0.000
4543 C2* -59.912 115.366 -96.924 NIL 221 G_221    0.000
4544 O3* -60.229 116.785 -95.005 NIL 221 G_221    0.000
4545 P -46.977 115.007 -105.464 NIL 222 C_222    0.000
4546 O1P -45.764 115.529 -106.132 NIL 222 C_222    0.000
4547 O2P -47.045 113.548 -105.228 NIL 222 C_222    0.000
4548 O5* -47.111 115.848 -104.109 NIL 222 C_222    0.000
4549 C5* -47.578 117.207 -104.175 NIL 222 C_222    0.000
4550 C4* -47.627 117.807 -102.783 NIL 222 C_222    0.000
4551 O4* -48.881 117.400 -102.242 NIL 222 C_222    0.000
4552 C1* -48.735 116.467 -101.191 NIL 222 C_222    0.000
4553 N1 -49.689 115.364 -101.490 NIL 222 C_222    0.000
4554 C6 -49.375 114.390 -102.386 NIL 222 C_222    0.000
4555 C5 -50.245 113.384 -102.660 NIL 222 C_222    0.000
4556 C4 -51.496 113.402 -101.963 NIL 222 C_222    0.000
4557 N4 -52.392 112.451 -102.181 NIL 222 C_222    0.000
4558 N3 -51.795 114.365 -101.083 NIL 222 C_222    0.000
4559 C2 -50.911 115.363 -100.824 NIL 222 C_222    0.000
4560 O2 -51.152 116.271 -100.018 NIL 222 C_222    0.000
4561 C3* -46.588 117.278 -101.795 NIL 222 C_222    0.000
4562 C2* -47.272 116.038 -101.218 NIL 222 C_222    0.000
4563 O3* -46.333 118.203 -100.747 NIL 222 C_222    0.000
4564 P -60.471 117.307 -96.105 NIL 223 G_223    0.000
4565 O1P -61.125 117.845 -94.891 NIL 223 G_223    0.000
4566 O2P -61.342 116.985 -97.257 NIL 223 G_223    0.000
4567 O5* -59.334 118.368 -96.481 NIL 223 G_223    0.000
4568 C5* -58.130 118.408 -95.695 NIL 223 G_223    0.000
4569 C4* -57.199 119.481 -96.226 NIL 223 G_223    0.000
4570 O4* -56.485 118.863 -97.295 NIL 223 G_223    0.000
4571 C1* -56.846 119.389 -98.556 NIL 223 G_223    0.000
4572 N9 -57.096 118.210 -99.431 NIL 223 G_223    0.000
4573 C8 -58.216 117.413 -99.520 NIL 223 G_223    0.000
4574 N7 -58.115 116.446 -100.399 NIL 223 G_223    0.000
4575 C5 -56.836 116.613 -100.930 NIL 223 G_223    0.000
4576 C6 -56.156 115.866 -101.925 NIL 223 G_223    0.000
4577 O6 -56.547 114.888 -102.556 NIL 223 G_223    0.000
4578 N1 -54.873 116.380 -102.162 NIL 223 G_223    0.000
4579 C2 -54.320 117.472 -101.521 NIL 223 G_223    0.000
4580 N2 -53.082 117.804 -101.891 NIL 223 G_223    0.000
4581 N3 -54.960 118.171 -100.587 NIL 223 G_223    0.000
4582 C4 -56.206 117.687 -100.345 NIL 223 G_223    0.000
4583 C3* -57.877 120.693 -96.863 NIL 223 G_223    0.000
4584 C2* -58.085 120.243 -98.309 NIL 223 G_223    0.000
4585 O3* -57.039 121.841 -96.844 NIL 223 G_223    0.000
4586 P -50.734 112.761 -109.727 NIL 224 C_224    0.000
4587 O1P -49.767 112.558 -110.829 NIL 224 C_224    0.000
4588 O2P -51.302 111.551 -109.092 NIL 224 C_224    0.000
4589 O5* -49.988 113.707 -108.675 NIL 224 C_224    0.000
4590 C5* -49.841 115.106 -108.975 NIL 224 C_224    0.000
4591 C4* -49.108 115.805 -107.846 NIL 224 C_224    0.000
4592 O4* -50.112 116.114 -106.882 NIL 224 C_224    0.000
4593 C1* -49.976 115.349 -105.701 NIL 224 C_224    0.000
4594 N1 -51.334 114.815 -105.404 NIL 224 C_224    0.000
4595 C6 -51.813 113.718 -106.050 NIL 224 C_224    0.000
4596 C5 -53.051 113.232 -105.780 NIL 224 C_224    0.000
4597 C4 -53.819 113.927 -104.789 NIL 224 C_224    0.000
4598 N4 -55.035 113.507 -104.475 NIL 224 C_224    0.000
4599 N3 -53.337 115.006 -104.159 NIL 224 C_224    0.000
4600 C2 -52.096 115.477 -104.445 NIL 224 C_224    0.000
4601 O2 -51.617 116.471 -103.884 NIL 224 C_224    0.000
4602 C3* -48.091 114.954 -107.087 NIL 224 C_224    0.000
4603 C2* -48.949 114.268 -106.024 NIL 224 C_224    0.000
4604 O3* -47.102 115.751 -106.449 NIL 224 C_224    0.000
4605 P -57.441 122.290 -97.930 NIL 225 G_225    0.000
4606 O1P -57.303 123.207 -96.776 NIL 225 G_225    0.000
4607 O2P -58.731 122.302 -98.653 NIL 225 G_225    0.000
4608 O5* -56.204 122.624 -98.888 NIL 225 G_225    0.000
4609 C5* -54.892 122.166 -98.518 NIL 225 G_225    0.000
4610 C4* -53.879 122.592 -99.564 NIL 225 G_225    0.000
4611 O4* -53.945 121.593 -100.579 NIL 225 G_225    0.000
4612 C1* -54.505 122.085 -101.780 NIL 225 G_225    0.000
4613 N9 -55.529 121.083 -102.190 NIL 225 G_225    0.000
4614 C8 -56.819 120.920 -101.737 NIL 225 G_225    0.000
4615 N7 -57.465 119.933 -102.308 NIL 225 G_225    0.000
4616 C5 -56.537 119.404 -103.204 NIL 225 G_225    0.000
4617 C6 -56.656 118.317 -104.108 NIL 225 G_225    0.000
4618 O6 -57.621 117.585 -104.309 NIL 225 G_225    0.000
4619 N1 -55.470 118.120 -104.830 NIL 225 G_225    0.000
4620 C2 -54.321 118.874 -104.696 NIL 225 G_225    0.000
4621 N2 -53.297 118.526 -105.478 NIL 225 G_225    0.000
4622 N3 -54.211 119.894 -103.848 NIL 225 G_225    0.000
4623 C4 -55.351 120.099 -103.139 NIL 225 G_225    0.000
4624 C3* -54.185 123.902 -100.289 NIL 225 G_225    0.000
4625 C2* -55.089 123.451 -101.436 NIL 225 G_225    0.000
4626 O3* -53.011 124.499 -100.823 NIL 225 G_225    0.000
4627 P -56.387 112.145 -111.965 NIL 226 C_226    0.000
4628 O1P -56.085 111.381 -113.196 NIL 226 C_226    0.000
4629 O2P -57.115 111.437 -110.889 NIL 226 C_226    0.000
4630 O5* -54.981 112.724 -111.468 NIL 226 C_226    0.000
4631 C5* -54.398 113.837 -112.169 NIL 226 C_226    0.000
4632 C4* -53.076 114.217 -111.531 NIL 226 C_226    0.000
4633 O4* -53.416 115.076 -110.444 NIL 226 C_226    0.000
4634 C1* -53.171 114.475 -109.189 NIL 226 C_226    0.000
4635 N1 -54.405 114.698 -108.385 NIL 226 C_226    0.000
4636 C6 -55.497 113.903 -108.542 NIL 226 C_226    0.000
4637 C5 -56.622 114.106 -107.809 NIL 226 C_226    0.000
4638 C4 -56.598 115.190 -106.872 NIL 226 C_226    0.000
4639 N4 -57.661 115.444 -106.123 NIL 226 C_226    0.000
4640 N3 -55.517 115.965 -106.725 NIL 226 C_226    0.000
4641 C2 -54.402 115.746 -107.468 NIL 226 C_226    0.000
4642 O2 -53.384 116.442 -107.361 NIL 226 C_226    0.000
4643 C3* -52.294 113.071 -110.889 NIL 226 C_226    0.000
4644 C2* -52.886 113.006 -109.481 NIL 226 C_226    0.000
4645 O3* -50.905 113.359 -110.801 NIL 226 C_226    0.000
4646 P -53.570 124.963 -101.830 NIL 227 G_227    0.000
4647 O1P -52.642 125.821 -101.059 NIL 227 G_227    0.000
4648 O2P -54.909 125.515 -102.132 NIL 227 G_227    0.000
4649 O5* -52.769 124.552 -103.153 NIL 227 G_227    0.000
4650 C5* -51.729 123.563 -103.059 NIL 227 G_227    0.000
4651 C4* -51.110 123.331 -104.424 NIL 227 G_227    0.000
4652 O4* -51.959 122.382 -105.065 NIL 227 G_227    0.000
4653 C1* -52.676 122.946 -106.144 NIL 227 G_227    0.000
4654 N9 -54.092 122.522 -105.957 NIL 227 G_227    0.000
4655 C8 -55.058 123.052 -105.130 NIL 227 G_227    0.000
4656 N7 -56.215 122.441 -105.202 NIL 227 G_227    0.000
4657 C5 -56.002 121.435 -106.144 NIL 227 G_227    0.000
4658 C6 -56.889 120.447 -106.643 NIL 227 G_227    0.000
4659 O6 -58.066 120.253 -106.354 NIL 227 G_227    0.000
4660 N1 -56.260 119.626 -107.589 NIL 227 G_227    0.000
4661 C2 -54.946 119.743 -107.998 NIL 227 G_227    0.000
4662 N2 -54.536 118.861 -108.912 NIL 227 G_227    0.000
4663 N3 -54.114 120.671 -107.529 NIL 227 G_227    0.000
4664 C4 -54.708 121.477 -106.611 NIL 227 G_227    0.000
4665 C3* -51.099 124.537 -105.363 NIL 227 G_227    0.000
4666 C2* -52.468 124.453 -106.037 NIL 227 G_227    0.000
4667 O3* -50.082 124.432 -106.350 NIL 227 G_227    0.000
4668 P -62.176 114.083 -112.251 NIL 228 C_228    0.000
4669 O1P -62.705 113.137 -113.259 NIL 228 C_228    0.000
4670 O2P -62.663 113.936 -110.862 NIL 228 C_228    0.000
4671 O5* -60.583 113.965 -112.352 NIL 228 C_228    0.000
4672 C5* -59.908 114.574 -113.466 NIL 228 C_228    0.000
4673 C4* -58.413 114.339 -113.358 NIL 228 C_228    0.000
4674 O4* -57.931 115.369 -112.498 NIL 228 C_228    0.000
4675 C1* -57.500 114.868 -111.249 NIL 228 C_228    0.000
4676 N1 -58.128 115.745 -110.221 NIL 228 C_228    0.000
4677 C6 -59.420 115.562 -109.838 NIL 228 C_228    0.000
4678 C5 -59.992 116.361 -108.902 NIL 228 C_228    0.000
4679 C4 -59.172 117.395 -108.343 NIL 228 C_228    0.000
4680 N4 -59.666 118.210 -107.424 NIL 228 C_228    0.000
4681 N3 -57.901 117.565 -108.727 NIL 228 C_228    0.000
4682 C2 -57.348 116.756 -109.666 NIL 228 C_228    0.000
4683 O2 -56.177 116.883 -110.047 NIL 228 C_228    0.000
4684 C3* -57.993 113.038 -112.675 NIL 228 C_228    0.000
4685 C2* -57.978 113.421 -111.196 NIL 228 C_228    0.000
4686 O3* -56.689 112.629 -113.068 NIL 228 C_228    0.000
4687 P -50.736 124.993 -107.244 NIL 229 G_229    0.000
4688 O1P -49.322 125.378 -107.033 NIL 229 G_229    0.000
4689 O2P -51.735 126.084 -107.293 NIL 229 G_229    0.000
4690 O5* -50.741 124.104 -108.574 NIL 229 G_229    0.000
4691 C5* -50.250 122.754 -108.512 NIL 229 G_229    0.000
4692 C4* -50.348 122.103 -109.879 NIL 229 G_229    0.000
4693 O4* -51.685 121.616 -109.967 NIL 229 G_229    0.000
4694 C1* -52.456 122.332 -110.910 NIL 229 G_229    0.000
4695 N9 -53.734 122.666 -110.221 NIL 229 G_229    0.000
4696 C8 -54.004 123.682 -109.331 NIL 229 G_229    0.000
4697 N7 -55.243 123.700 -108.902 NIL 229 G_229    0.000
4698 C5 -55.835 122.619 -109.553 NIL 229 G_229    0.000
4699 C6 -57.166 122.132 -109.490 NIL 229 G_229    0.000
4700 O6 -58.113 122.562 -108.837 NIL 229 G_229    0.000
4701 N1 -57.340 121.010 -110.313 NIL 229 G_229    0.000
4702 C2 -56.356 120.435 -111.094 NIL 229 G_229    0.000
4703 N2 -56.725 119.369 -111.808 NIL 229 G_229    0.000
4704 N3 -55.108 120.893 -111.152 NIL 229 G_229    0.000
4705 C4 -54.922 121.981 -110.360 NIL 229 G_229    0.000
4706 C3* -50.198 123.043 -111.074 NIL 229 G_229    0.000
4707 C2* -51.624 123.555 -111.283 NIL 229 G_229    0.000
4708 O3* -49.772 122.353 -112.242 NIL 229 G_229    0.000
4709 P -66.288 118.523 -111.403 NIL 230 C_230    0.000
4710 O1P -67.497 117.843 -111.920 NIL 230 C_230    0.000
4711 O2P -66.228 118.783 -109.948 NIL 230 C_230    0.000
4712 O5* -65.054 117.642 -111.914 NIL 230 C_230    0.000
4713 C5* -64.665 117.724 -113.297 NIL 230 C_230    0.000
4714 C4* -63.481 116.812 -113.557 NIL 230 C_230    0.000
4715 O4* -62.333 117.571 -113.185 NIL 230 C_230    0.000
4716 C1* -61.708 117.066 -112.023 NIL 230 C_230    0.000
4717 N1 -61.480 118.243 -111.140 NIL 230 C_230    0.000
4718 C6 -62.482 118.749 -110.372 NIL 230 C_230    0.000
4719 C5 -62.274 119.822 -109.567 NIL 230 C_230    0.000
4720 C4 -60.957 120.388 -109.570 NIL 230 C_230    0.000
4721 N4 -60.684 121.437 -108.808 NIL 230 C_230    0.000
4722 N3 -59.978 119.883 -110.329 NIL 230 C_230    0.000
4723 C2 -60.207 118.808 -111.128 NIL 230 C_230    0.000
4724 O2 -59.328 118.314 -111.844 NIL 230 C_230    0.000
4725 C3* -63.409 115.553 -112.693 NIL 230 C_230    0.000
4726 C2* -62.680 116.043 -111.442 NIL 230 C_230    0.000
4727 O3* -62.644 114.528 -113.311 NIL 230 C_230    0.000
4728 P -50.421 123.057 -113.031 NIL 231 G_231    0.000
4729 O1P -49.011 122.735 -113.344 NIL 231 G_231    0.000
4730 O2P -50.820 124.481 -113.092 NIL 231 G_231    0.000
4731 O5* -51.294 122.140 -114.009 NIL 231 G_231    0.000
4732 C5* -51.418 120.736 -113.722 NIL 231 G_231    0.000
4733 C4* -52.285 120.066 -114.771 NIL 231 G_231    0.000
4734 O4* -53.627 120.276 -114.340 NIL 231 G_231    0.000
4735 C1* -54.329 121.166 -115.184 NIL 231 G_231    0.000
4736 N9 -54.991 122.147 -114.280 NIL 231 G_231    0.000
4737 C8 -54.461 123.260 -113.664 NIL 231 G_231    0.000
4738 N7 -55.318 123.919 -112.923 NIL 231 G_231    0.000
4739 C5 -56.500 123.192 -113.058 NIL 231 G_231    0.000
4740 C6 -57.780 123.416 -112.489 NIL 231 G_231    0.000
4741 O6 -58.142 124.318 -111.738 NIL 231 G_231    0.000
4742 N1 -58.697 122.433 -112.889 NIL 231 G_231    0.000
4743 C2 -58.413 121.373 -113.728 NIL 231 G_231    0.000
4744 N2 -59.427 120.545 -113.989 NIL 231 G_231    0.000
4745 N3 -57.211 121.164 -114.261 NIL 231 G_231    0.000
4746 C4 -56.310 122.108 -113.884 NIL 231 G_231    0.000
4747 C3* -52.226 120.679 -116.170 NIL 231 G_231    0.000
4748 C2* -53.277 121.787 -116.098 NIL 231 G_231    0.000
4749 O3* -52.598 119.745 -117.175 NIL 231 G_231    0.000
4750 P -67.553 124.457 -110.673 NIL 232 C_232    0.000
4751 O1P -69.031 124.390 -110.619 NIL 232 C_232    0.000
4752 O2P -66.846 124.815 -109.424 NIL 232 C_232    0.000
4753 O5* -67.085 123.040 -111.252 NIL 232 C_232    0.000
4754 C5* -67.252 122.771 -112.655 NIL 232 C_232    0.000
4755 C4* -66.743 121.379 -112.980 NIL 232 C_232    0.000
4756 O4* -65.338 121.528 -113.172 NIL 232 C_232    0.000
4757 C1* -64.588 120.917 -112.142 NIL 232 C_232    0.000
4758 N1 -63.581 121.928 -111.718 NIL 232 C_232    0.000
4759 C6 -63.913 122.935 -110.866 NIL 232 C_232    0.000
4760 C5 -62.995 123.857 -110.479 NIL 232 C_232    0.000
4761 C4 -61.672 123.715 -111.010 NIL 232 C_232    0.000
4762 N4 -60.726 124.580 -110.675 NIL 232 C_232    0.000
4763 N3 -61.355 122.720 -111.847 NIL 232 C_232    0.000
4764 C2 -62.288 121.808 -112.222 NIL 232 C_232    0.000
4765 O2 -62.033 120.876 -112.995 NIL 232 C_232    0.000
4766 C3* -66.874 120.346 -111.861 NIL 232 C_232    0.000
4767 C2* -65.594 120.559 -111.053 NIL 232 C_232    0.000
4768 O3* -66.895 119.018 -112.366 NIL 232 C_232    0.000
4769 P 40.366 -29.739 71.106 NIL 233 G_233    0.000
4770 O1P 40.629 -28.394 70.548 NIL 233 G_233    0.000
4771 O2P 41.446 -30.743 70.990 NIL 233 G_233    0.000
4772 O5* 39.926 -29.492 72.624 NIL 233 G_233    0.000
4773 C5* 38.608 -28.983 72.894 NIL 233 G_233    0.000
4774 C4* 38.409 -28.828 74.390 NIL 233 G_233    0.000
4775 O4* 38.009 -30.116 74.851 NIL 233 G_233    0.000
4776 C1* 39.000 -30.732 75.648 NIL 233 G_233    0.000
4777 N9 39.142 -32.118 75.120 NIL 233 G_233    0.000
4778 C8 39.846 -32.564 74.023 NIL 233 G_233    0.000
4779 N7 39.766 -33.858 73.828 NIL 233 G_233    0.000
4780 C5 38.952 -34.301 74.870 NIL 233 G_233    0.000
4781 C6 38.506 -35.609 75.188 NIL 233 G_233    0.000
4782 O6 38.742 -36.665 74.608 NIL 233 G_233    0.000
4783 N1 37.694 -35.609 76.331 NIL 233 G_233    0.000
4784 C2 37.358 -34.491 77.069 NIL 233 G_233    0.000
4785 N2 36.572 -34.702 78.128 NIL 233 G_233    0.000
4786 N3 37.777 -33.264 76.770 NIL 233 G_233    0.000
4787 C4 38.566 -33.245 75.664 NIL 233 G_233    0.000
4788 C3* 39.665 -28.500 75.197 NIL 233 G_233    0.000
4789 C2* 40.254 -29.881 75.481 NIL 233 G_233    0.000
4790 O3* 39.353 -27.860 76.428 NIL 233 G_233    0.000
4791 P 35.906 -44.167 79.649 NIL 234 C_234    0.000
4792 O1P 35.451 -45.250 80.549 NIL 234 C_234    0.000
4793 O2P 35.708 -44.364 78.196 NIL 234 C_234    0.000
4794 O5* 35.190 -42.840 80.185 NIL 234 C_234    0.000
4795 C5* 35.680 -42.221 81.388 NIL 234 C_234    0.000
4796 C4* 34.858 -40.986 81.707 NIL 234 C_234    0.000
4797 O4* 35.436 -39.940 80.930 NIL 234 C_234    0.000
4798 C1* 34.582 -39.512 79.888 NIL 234 C_234    0.000
4799 N1 35.427 -39.470 78.662 NIL 234 C_234    0.000
4800 C6 35.701 -40.602 77.961 NIL 234 C_234    0.000
4801 C5 36.472 -40.564 76.844 NIL 234 C_234    0.000
4802 C4 36.975 -39.282 76.447 NIL 234 C_234    0.000
4803 N4 37.733 -39.172 75.366 NIL 234 C_234    0.000
4804 N3 36.699 -38.174 77.145 NIL 234 C_234    0.000
4805 C2 35.926 -38.234 78.260 NIL 234 C_234    0.000
4806 O2 35.650 -37.231 78.931 NIL 234 C_234    0.000
4807 C3* 33.394 -41.031 81.270 NIL 234 C_234    0.000
4808 C2* 33.458 -40.541 79.824 NIL 234 C_234    0.000
4809 O3* 32.586 -40.144 82.031 NIL 234 C_234    0.000
4810 P 40.282 -28.383 77.063 NIL 235 G_235    0.000
4811 O1P 40.032 -26.932 77.213 NIL 235 G_235    0.000
4812 O2P 41.667 -28.803 76.754 NIL 235 G_235    0.000
4813 O5* 39.731 -29.050 78.409 NIL 235 G_235    0.000
4814 C5* 38.311 -29.184 78.591 NIL 235 G_235    0.000
4815 C4* 38.018 -29.839 79.927 NIL 235 G_235    0.000
4816 O4* 38.123 -31.241 79.690 NIL 235 G_235    0.000
4817 C1* 39.247 -31.810 80.329 NIL 235 G_235    0.000
4818 N9 39.923 -32.644 79.296 NIL 235 G_235    0.000
4819 C8 40.779 -32.257 78.288 NIL 235 G_235    0.000
4820 N7 41.204 -33.247 77.540 NIL 235 G_235    0.000
4821 C5 40.586 -34.368 78.091 NIL 235 G_235    0.000
4822 C6 40.661 -35.733 77.710 NIL 235 G_235    0.000
4823 O6 41.299 -36.242 76.794 NIL 235 G_235    0.000
4824 N1 39.873 -36.540 78.543 NIL 235 G_235    0.000
4825 C2 39.112 -36.088 79.603 NIL 235 G_235    0.000
4826 N2 38.431 -37.020 80.275 NIL 235 G_235    0.000
4827 N3 39.043 -34.808 79.960 NIL 235 G_235    0.000
4828 C4 39.801 -34.010 79.164 NIL 235 G_235    0.000
4829 C3* 39.027 -29.557 81.040 NIL 235 G_235    0.000
4830 C2* 40.088 -30.634 80.814 NIL 235 G_235    0.000
4831 O3* 38.455 -29.725 82.330 NIL 235 G_235    0.000
4832 P 41.366 -45.697 77.370 NIL 236 C_236    0.000
4833 O1P 41.327 -47.159 77.594 NIL 236 C_236    0.000
4834 O2P 41.305 -45.224 75.969 NIL 236 C_236    0.000
4835 O5* 40.182 -45.098 78.264 NIL 236 C_236    0.000
4836 C5* 40.359 -45.014 79.689 NIL 236 C_236    0.000
4837 C4* 39.119 -44.420 80.332 NIL 236 C_236    0.000
4838 O4* 39.281 -43.007 80.224 NIL 236 C_236    0.000
4839 C1* 38.363 -42.430 79.318 NIL 236 C_236    0.000
4840 N1 39.169 -41.537 78.439 NIL 236 C_236    0.000
4841 C6 39.876 -42.038 77.391 NIL 236 C_236    0.000
4842 C5 40.611 -41.225 76.589 NIL 236 C_236    0.000
4843 C4 40.601 -39.827 76.902 NIL 236 C_236    0.000
4844 N4 41.295 -38.976 76.161 NIL 236 C_236    0.000
4845 N3 39.901 -39.344 77.936 NIL 236 C_236    0.000
4846 C2 39.173 -40.175 78.726 NIL 236 C_236    0.000
4847 O2 38.514 -39.766 79.690 NIL 236 C_236    0.000
4848 C3* 37.798 -44.714 79.622 NIL 236 C_236    0.000
4849 C2* 37.718 -43.598 78.580 NIL 236 C_236    0.000
4850 O3* 36.688 -44.613 80.504 NIL 236 C_236    0.000
4851 P 39.492 -30.161 82.856 NIL 237 G_237    0.000
4852 O1P 38.703 -29.127 83.563 NIL 237 G_237    0.000
4853 O2P 40.941 -29.914 82.693 NIL 237 G_237    0.000
4854 O5* 39.192 -31.528 83.632 NIL 237 G_237    0.000
4855 C5* 37.924 -32.178 83.435 NIL 237 G_237    0.000
4856 C4* 37.858 -33.448 84.262 NIL 237 G_237    0.000
4857 O4* 38.496 -34.446 83.469 NIL 237 G_237    0.000
4858 C1* 39.731 -34.859 84.018 NIL 237 G_237    0.000
4859 N9 40.707 -34.829 82.893 NIL 237 G_237    0.000
4860 C8 41.385 -33.756 82.356 NIL 237 G_237    0.000
4861 N7 42.178 -34.070 81.361 NIL 237 G_237    0.000
4862 C5 42.015 -35.448 81.229 NIL 237 G_237    0.000
4863 C6 42.616 -36.356 80.319 NIL 237 G_237    0.000
4864 O6 43.430 -36.129 79.429 NIL 237 G_237    0.000
4865 N1 42.167 -37.667 80.534 NIL 237 G_237    0.000
4866 C2 41.257 -38.050 81.500 NIL 237 G_237    0.000
4867 N2 40.960 -39.351 81.543 NIL 237 G_237    0.000
4868 N3 40.694 -37.197 82.353 NIL 237 G_237    0.000
4869 C4 41.118 -35.921 82.159 NIL 237 G_237    0.000
4870 C3* 38.647 -33.430 85.571 NIL 237 G_237    0.000
4871 C2* 40.045 -33.863 85.129 NIL 237 G_237    0.000
4872 O3* 38.140 -34.369 86.509 NIL 237 G_237    0.000
4873 P 47.069 -44.110 75.853 NIL 238 C_238    0.000
4874 O1P 47.582 -45.425 75.408 NIL 238 C_238    0.000
4875 O2P 46.879 -43.071 74.817 NIL 238 C_238    0.000
4876 O5* 45.717 -44.429 76.648 NIL 238 C_238    0.000
4877 C5* 45.802 -44.987 77.971 NIL 238 C_238    0.000
4878 C4* 44.409 -45.206 78.532 NIL 238 C_238    0.000
4879 O4* 44.024 -43.948 79.084 NIL 238 C_238    0.000
4880 C1* 42.987 -43.334 78.347 NIL 238 C_238    0.000
4881 N1 43.421 -41.926 78.131 NIL 238 C_238    0.000
4882 C6 44.300 -41.606 77.144 NIL 238 C_238    0.000
4883 C5 44.696 -40.323 76.947 NIL 238 C_238    0.000
4884 C4 44.145 -39.333 77.825 NIL 238 C_238    0.000
4885 N4 44.487 -38.061 77.690 NIL 238 C_238    0.000
4886 N3 43.280 -39.658 78.794 NIL 238 C_238    0.000
4887 C2 42.897 -40.949 78.974 NIL 238 C_238    0.000
4888 O2 42.101 -41.288 79.859 NIL 238 C_238    0.000
4889 C3* 43.323 -45.527 77.506 NIL 238 C_238    0.000
4890 C2* 42.859 -44.141 77.059 NIL 238 C_238    0.000
4891 O3* 42.230 -46.222 78.090 NIL 238 C_238    0.000
4892 P 39.246 -34.647 86.998 NIL 239 G_239    0.000
4893 O1P 38.101 -34.393 87.901 NIL 239 G_239    0.000
4894 O2P 40.497 -33.904 87.266 NIL 239 G_239    0.000
4895 O5* 39.463 -36.232 87.024 NIL 239 G_239    0.000
4896 C5* 38.545 -37.073 86.304 NIL 239 G_239    0.000
4897 C4* 38.940 -38.529 86.465 NIL 239 G_239    0.000
4898 O4* 39.936 -38.760 85.471 NIL 239 G_239    0.000
4899 C1* 41.216 -38.967 86.032 NIL 239 G_239    0.000
4900 N9 42.143 -38.091 85.263 NIL 239 G_239    0.000
4901 C8 42.380 -36.741 85.400 NIL 239 G_239    0.000
4902 N7 43.265 -36.266 84.558 NIL 239 G_239    0.000
4903 C5 43.643 -37.381 83.811 NIL 239 G_239    0.000
4904 C6 44.574 -37.495 82.746 NIL 239 G_239    0.000
4905 O6 45.269 -36.621 82.235 NIL 239 G_239    0.000
4906 N1 44.651 -38.812 82.273 NIL 239 G_239    0.000
4907 C2 43.923 -39.879 82.763 NIL 239 G_239    0.000
4908 N2 44.142 -41.057 82.175 NIL 239 G_239    0.000
4909 N3 43.050 -39.771 83.762 NIL 239 G_239    0.000
4910 C4 42.964 -38.500 84.234 NIL 239 G_239    0.000
4911 C3* 39.619 -38.891 87.785 NIL 239 G_239    0.000
4912 C2* 41.090 -38.586 87.503 NIL 239 G_239    0.000
4913 O3* 39.476 -40.270 88.095 NIL 239 G_239    0.000
4914 P 51.786 -40.266 76.406 NIL 240 C_240    0.000
4915 O1P 52.776 -40.963 75.554 NIL 240 C_240    0.000
4916 O2P 51.250 -38.980 75.909 NIL 240 C_240    0.000
4917 O5* 50.632 -41.339 76.682 NIL 240 C_240    0.000
4918 C5* 50.879 -42.403 77.618 NIL 240 C_240    0.000
4919 C4* 49.656 -43.296 77.723 NIL 240 C_240    0.000
4920 O4* 48.805 -42.656 78.670 NIL 240 C_240    0.000
4921 C1* 47.636 -42.131 78.073 NIL 240 C_240    0.000
4922 N1 47.509 -40.738 78.585 NIL 240 C_240    0.000
4923 C6 48.232 -39.723 78.042 NIL 240 C_240    0.000
4924 C5 48.117 -38.453 78.508 NIL 240 C_240    0.000
4925 C4 47.202 -38.242 79.591 NIL 240 C_240    0.000
4926 N4 47.039 -37.028 80.095 NIL 240 C_240    0.000
4927 N3 46.495 -39.249 80.118 NIL 240 C_240    0.000
4928 C2 46.625 -40.511 79.637 NIL 240 C_240    0.000
4929 O2 45.989 -41.468 80.099 NIL 240 C_240    0.000
4930 C3* 48.809 -43.412 76.456 NIL 240 C_240    0.000
4931 C2* 47.868 -42.213 76.568 NIL 240 C_240    0.000
4932 O3* 48.043 -44.610 76.438 NIL 240 C_240    0.000
4933 P 40.588 -40.379 88.635 NIL 241 G_241    0.000
4934 O1P 39.403 -40.970 89.297 NIL 241 G_241    0.000
4935 O2P 41.453 -39.501 89.454 NIL 241 G_241    0.000
4936 O5* 41.391 -41.617 88.017 NIL 241 G_241    0.000
4937 C5* 40.886 -42.252 86.829 NIL 241 G_241    0.000
4938 C4* 41.800 -43.393 86.422 NIL 241 G_241    0.000
4939 O4* 42.841 -42.787 85.660 NIL 241 G_241    0.000
4940 C1* 44.084 -42.817 86.330 NIL 241 G_241    0.000
4941 N9 44.634 -41.436 86.230 NIL 241 G_241    0.000
4942 C8 44.334 -40.323 86.984 NIL 241 G_241    0.000
4943 N7 45.000 -39.248 86.637 NIL 241 G_241    0.000
4944 C5 45.798 -39.680 85.579 NIL 241 G_241    0.000
4945 C6 46.736 -38.965 84.791 NIL 241 G_241    0.000
4946 O6 47.064 -37.784 84.867 NIL 241 G_241    0.000
4947 N1 47.324 -39.790 83.822 NIL 241 G_241    0.000
4948 C2 47.041 -41.129 83.637 NIL 241 G_241    0.000
4949 N2 47.711 -41.739 82.657 NIL 241 G_241    0.000
4950 N3 46.160 -41.799 84.377 NIL 241 G_241    0.000
4951 C4 45.581 -41.014 85.322 NIL 241 G_241    0.000
4952 C3* 42.521 -44.106 87.565 NIL 241 G_241    0.000
4953 C2* 43.774 -43.252 87.759 NIL 241 G_241    0.000
4954 O3* 42.904 -45.427 87.209 NIL 241 G_241    0.000
4955 P 54.666 -35.885 79.545 NIL 242 C_242    0.000
4956 O1P 55.874 -35.729 78.703 NIL 242 C_242    0.000
4957 O2P 53.698 -34.766 79.553 NIL 242 C_242    0.000
4958 O5* 53.999 -37.262 79.080 NIL 242 C_242    0.000
4959 C5* 54.600 -38.502 79.491 NIL 242 C_242    0.000
4960 C4* 53.806 -39.672 78.940 NIL 242 C_242    0.000
4961 O4* 52.744 -39.876 79.869 NIL 242 C_242    0.000
4962 C1* 51.485 -39.533 79.328 NIL 242 C_242    0.000
4963 N1 50.820 -38.681 80.353 NIL 242 C_242    0.000
4964 C6 51.120 -37.360 80.469 NIL 242 C_242    0.000
4965 C5 50.515 -36.583 81.403 NIL 242 C_242    0.000
4966 C4 49.554 -37.222 82.252 NIL 242 C_242    0.000
4967 N4 48.925 -36.524 83.186 NIL 242 C_242    0.000
4968 N3 49.266 -38.524 82.130 NIL 242 C_242    0.000
4969 C2 49.883 -39.283 81.189 NIL 242 C_242    0.000
4970 O2 49.643 -40.489 81.046 NIL 242 C_242    0.000
4971 C3* 53.109 -39.430 77.602 NIL 242 C_242    0.000
4972 C2* 51.780 -38.803 78.022 NIL 242 C_242    0.000
4973 O3* 52.858 -40.644 76.907 NIL 242 C_242    0.000
4974 P 43.955 -45.421 87.869 NIL 243 G_243    0.000
4975 O1P 43.063 -46.599 87.945 NIL 243 G_243    0.000
4976 O2P 44.394 -44.821 89.149 NIL 243 G_243    0.000
4977 O5* 45.189 -45.879 86.959 NIL 243 G_243    0.000
4978 C5* 45.003 -45.989 85.537 NIL 243 G_243    0.000
4979 C4* 46.294 -46.434 84.878 NIL 243 G_243    0.000
4980 O4* 47.051 -45.241 84.690 NIL 243 G_243    0.000
4981 C1* 48.190 -45.191 85.525 NIL 243 G_243    0.000
4982 N9 48.176 -43.839 86.151 NIL 243 G_243    0.000
4983 C8 47.450 -43.387 87.231 NIL 243 G_243    0.000
4984 N7 47.668 -42.130 87.532 NIL 243 G_243    0.000
4985 C5 48.605 -41.720 86.584 NIL 243 G_243    0.000
4986 C6 49.227 -40.458 86.400 NIL 243 G_243    0.000
4987 O6 49.078 -39.425 87.047 NIL 243 G_243    0.000
4988 N1 50.116 -40.479 85.316 NIL 243 G_243    0.000
4989 C2 50.370 -41.575 84.515 NIL 243 G_243    0.000
4990 N2 51.254 -41.389 83.532 NIL 243 G_243    0.000
4991 N3 49.786 -42.758 84.689 NIL 243 G_243    0.000
4992 C4 48.921 -42.756 85.736 NIL 243 G_243    0.000
4993 C3* 47.195 -47.335 85.722 NIL 243 G_243    0.000
4994 C2* 48.022 -46.331 86.524 NIL 243 G_243    0.000
4995 O3* 48.063 -48.122 84.918 NIL 243 G_243    0.000
4996 P 55.558 -32.892 84.797 NIL 244 C_244    0.000
4997 O1P 56.642 -31.975 84.380 NIL 244 C_244    0.000
4998 O2P 54.237 -32.290 85.087 NIL 244 C_244    0.000
4999 O5* 55.480 -34.007 83.653 NIL 244 C_244    0.000
5000 C5* 56.494 -35.026 83.603 NIL 244 C_244    0.000
5001 C4* 56.223 -35.971 82.447 NIL 244 C_244    0.000
5002 O4* 55.289 -36.922 82.951 NIL 244 C_244    0.000
5003 C1* 54.012 -36.784 82.360 NIL 244 C_244    0.000
5004 N1 53.040 -36.792 83.489 NIL 244 C_244    0.000
5005 C6 52.811 -35.672 84.225 NIL 244 C_244    0.000
5006 C5 51.926 -35.679 85.254 NIL 244 C_244    0.000
5007 C4 51.252 -36.916 85.520 NIL 244 C_244    0.000
5008 N4 50.374 -36.995 86.509 NIL 244 C_244    0.000
5009 N3 51.484 -38.013 84.789 NIL 244 C_244    0.000
5010 C2 52.375 -37.984 83.764 NIL 244 C_244    0.000
5011 O2 52.617 -38.978 83.067 NIL 244 C_244    0.000
5012 C3* 55.531 -35.353 81.232 NIL 244 C_244    0.000
5013 C2* 54.050 -35.467 81.593 NIL 244 C_244    0.000
5014 O3* 55.783 -36.092 80.045 NIL 244 C_244    0.000
5015 P 49.010 -48.098 85.720 NIL 245 G_245    0.000
5016 O1P 48.631 -49.382 85.088 NIL 245 G_245    0.000
5017 O2P 49.145 -48.082 87.193 NIL 245 G_245    0.000
5018 O5* 50.355 -47.642 84.982 NIL 245 G_245    0.000
5019 C5* 50.271 -47.109 83.649 NIL 245 G_245    0.000
5020 C4* 51.657 -46.744 83.148 NIL 245 G_245    0.000
5021 O4* 51.908 -45.437 83.660 NIL 245 G_245    0.000
5022 C1* 52.914 -45.434 84.652 NIL 245 G_245    0.000
5023 N9 52.366 -44.634 85.783 NIL 245 G_245    0.000
5024 C8 51.488 -45.014 86.774 NIL 245 G_245    0.000
5025 N7 51.201 -44.062 87.628 NIL 245 G_245    0.000
5026 C5 51.942 -42.973 87.171 NIL 245 G_245    0.000
5027 C6 52.043 -41.655 87.687 NIL 245 G_245    0.000
5028 O6 51.491 -41.169 88.670 NIL 245 G_245    0.000
5029 N1 52.909 -40.869 86.913 NIL 245 G_245    0.000
5030 C2 53.587 -41.299 85.790 NIL 245 G_245    0.000
5031 N2 54.366 -40.393 85.193 NIL 245 G_245    0.000
5032 N3 53.491 -42.535 85.307 NIL 245 G_245    0.000
5033 C4 52.657 -43.312 86.045 NIL 245 G_245    0.000
5034 C3* 52.803 -47.598 83.688 NIL 245 G_245    0.000
5035 C2* 53.159 -46.898 84.999 NIL 245 G_245    0.000
5036 O3* 53.932 -47.578 82.823 NIL 245 G_245    0.000
5037 P 55.069 -32.683 90.885 NIL 246 C_246    0.000
5038 O1P 55.737 -31.387 91.143 NIL 246 C_246    0.000
5039 O2P 53.610 -32.752 91.122 NIL 246 C_246    0.000
5040 O5* 55.460 -33.070 89.383 NIL 246 C_246    0.000
5041 C5* 56.786 -33.554 89.110 NIL 246 C_246    0.000
5042 C4* 56.934 -33.858 87.630 NIL 246 C_246    0.000
5043 O4* 56.415 -35.176 87.464 NIL 246 C_246    0.000
5044 C1* 55.202 -35.187 86.739 NIL 246 C_246    0.000
5045 N1 54.269 -36.046 87.521 NIL 246 C_246    0.000
5046 C6 53.607 -35.557 88.603 NIL 246 C_246    0.000
5047 C5 52.758 -36.339 89.317 NIL 246 C_246    0.000
5048 C4 52.596 -37.692 88.873 NIL 246 C_246    0.000
5049 N4 51.782 -38.511 89.522 NIL 246 C_246    0.000
5050 N3 53.253 -38.163 87.806 NIL 246 C_246    0.000
5051 C2 54.099 -37.364 87.107 NIL 246 C_246    0.000
5052 O2 54.723 -37.764 86.115 NIL 246 C_246    0.000
5053 C3* 56.099 -32.991 86.688 NIL 246 C_246    0.000
5054 C2* 54.762 -33.730 86.645 NIL 246 C_246    0.000
5055 O3* 56.652 -32.945 85.380 NIL 246 C_246    0.000
5056 P 54.772 -47.641 83.735 NIL 247 G_247    0.000
5057 O1P 54.931 -48.508 82.546 NIL 247 G_247    0.000
5058 O2P 54.841 -48.292 85.062 NIL 247 G_247    0.000
5059 O5* 55.865 -46.485 83.568 NIL 247 G_247    0.000
5060 C5* 55.629 -45.436 82.613 NIL 247 G_247    0.000
5061 C4* 56.787 -44.456 82.622 NIL 247 G_247    0.000
5062 O4* 56.506 -43.553 83.689 NIL 247 G_247    0.000
5063 C1* 57.402 -43.705 84.772 NIL 247 G_247    0.000
5064 N9 56.553 -43.770 85.994 NIL 247 G_247    0.000
5065 C8 55.854 -44.837 86.514 NIL 247 G_247    0.000
5066 N7 55.198 -44.560 87.615 NIL 247 G_247    0.000
5067 C5 55.484 -43.214 87.842 NIL 247 G_247    0.000
5068 C6 55.059 -42.353 88.886 NIL 247 G_247    0.000
5069 O6 54.331 -42.603 89.842 NIL 247 G_247    0.000
5070 N1 55.585 -41.062 88.730 NIL 247 G_247    0.000
5071 C2 56.413 -40.658 87.701 NIL 247 G_247    0.000
5072 N2 56.808 -39.383 87.733 NIL 247 G_247    0.000
5073 N3 56.811 -41.467 86.722 NIL 247 G_247    0.000
5074 C4 56.311 -42.723 86.857 NIL 247 G_247    0.000
5075 C3* 58.155 -45.047 82.965 NIL 247 G_247    0.000
5076 C2* 58.174 -44.991 84.493 NIL 247 G_247    0.000
5077 O3* 59.218 -44.255 82.453 NIL 247 G_247    0.000
5078 P 54.337 -35.590 96.210 NIL 248 C_248    0.000
5079 O1P 54.453 -34.442 97.137 NIL 248 C_248    0.000
5080 O2P 53.007 -36.226 96.082 NIL 248 C_248    0.000
5081 O5* 54.895 -35.061 94.807 NIL 248 C_248    0.000
5082 C5* 56.314 -34.902 94.636 NIL 248 C_248    0.000
5083 C4* 56.615 -34.393 93.238 NIL 248 C_248    0.000
5084 O4* 56.642 -35.556 92.413 NIL 248 C_248    0.000
5085 C1* 55.550 -35.604 91.518 NIL 248 C_248    0.000
5086 N1 54.988 -36.979 91.636 NIL 248 C_248    0.000
5087 C6 54.155 -37.310 92.658 NIL 248 C_248    0.000
5088 C5 53.644 -38.563 92.767 NIL 248 C_248    0.000
5089 C4 54.024 -39.507 91.758 NIL 248 C_248    0.000
5090 N4 53.562 -40.748 91.802 NIL 248 C_248    0.000
5091 N3 54.845 -39.170 90.756 NIL 248 C_248    0.000
5092 C2 55.346 -37.911 90.667 NIL 248 C_248    0.000
5093 O2 56.108 -37.563 89.756 NIL 248 C_248    0.000
5094 C3* 55.545 -33.499 92.613 NIL 248 C_248    0.000
5095 C2* 54.592 -34.509 91.975 NIL 248 C_248    0.000
5096 O3* 56.082 -32.656 91.602 NIL 248 C_248    0.000
@<TRIPOS>BOND
@<TRIPOS>SUBSTRUCTURE
1 G_1 1 RESIDUE 1 A G 1
2 C_2 23 RESIDUE 1 A C 1
3 G_3 42 RESIDUE 1 A G 1
4 C_4 64 RESIDUE 1 A C 1
5 G_5 83 RESIDUE 1 A G 1
6 C_6 105 RESIDUE 1 A C 1
7 G_7 124 RESIDUE 1 A G 1
8 C_8 146 RESIDUE 1 A C 1
9 G_9 165 RESIDUE 1 A G 1
10 C_10 187 RESIDUE 1 A C 1
11 G_11 206 RESIDUE 1 A G 1
12 C_12 228 RESIDUE 1 A C 1
13 G_13 247 RESIDUE 1 A G 1
14 C_14 269 RESIDUE 1 A C 1
15 G_15 288 RESIDUE 1 A G 1
16 C_16 310 RESIDUE 1 A C 1
17 G_17 329 RESIDUE 1 B G 1
18 C_18 351 RESIDUE 1 B C 1
19 G_19 370 RESIDUE 1 B G 1
20 C_20 392 RESIDUE 1 B C 1
21 G_21 411 RESIDUE 1 B G 1
22 C_22 433 RESIDUE 1 B C 1
23 G_23 452 RESIDUE 1 B G 1
24 C_24 474 RESIDUE 1 B C 1
25 G_25 493 RESIDUE 1 B G 1
26 C_26 515 RESIDUE 1 B C 1
27 G_27 534 RESIDUE 1 B G 1
28 C_28 556 RESIDUE 1 B C 1
29 G_29 575 RESIDUE 1 B G 1
30 C_30 597 RESIDUE 1 B C 1
31 G_31 616 RESIDUE 1 B G 1
32 C_32 638 RESIDUE 1 B C 1
33 G_33 657 RESIDUE 1 B G 1
34 C_34 679 RESIDUE 1 B C 1
35 G_35 698 RESIDUE 1 B G 1
36 C_36 720 RESIDUE 1 B C 1
37 G_37 739 RESIDUE 1 B G 1
38 C_38 761 RESIDUE 1 B C 1
39 G_39 780 RESIDUE 1 B G 1
40 C_40 802 RESIDUE 1 B C 1
41 G_41 821 RESIDUE 1 B G 1
42 C_42 843 RESIDUE 1 B C 1
43 G_43 862 RESIDUE 1 B G 1
44 C_44 884 RESIDUE 1 B C 1
45 G_45 903 RESIDUE 1 B G 1
46 C_46 925 RESIDUE 1 B C 1
47 G_47 944 RESIDUE 1 B G 1
48 C_48 966 RESIDUE 1 B C 1
49 G_49 985 RESIDUE 1 B G 1
50 C_50 1007 RESIDUE 1 B C 1
51 G_51 1026 RESIDUE 1 B G 1
52 C_52 1048 RESIDUE 1 B C 1
53 G_53 1067 RESIDUE 1 B G 1
54 C_54 1089 RESIDUE 1 B C 1
55 G_55 1108 RESIDUE 1 B G 1
56 C_56 1130 RESIDUE 1 B C 1
57 G_57 1149 RESIDUE 1 B G 1
58 C_58 1171 RESIDUE 1 B C 1
59 G_59 1190 RESIDUE 1 B G 1
60 C_60 1212 RESIDUE 1 B C 1
61 G_61 1231 RESIDUE 1 B G 1
62 C_62 1253 RESIDUE 1 B C 1
63 G_63 1272 RESIDUE 1 B G 1
64 C_64 1294 RESIDUE 1 B C 1
65 G_65 1313 RESIDUE 1 B G 1
66 C_66 1335 RESIDUE 1 B C 1
67 G_67 1354 RESIDUE 1 B G 1
68 C_68 1376 RESIDUE 1 B C 1
69 G_69 1395 RESIDUE 1 B G 1
70 C_70 1417 RESIDUE 1 B C 1
71 G_71 1436 RESIDUE 1 B G 1
72 C_72 1458 RESIDUE 1 B C 1
73 G_73 1477 RESIDUE 1 B G 1
74 C_74 1499 RESIDUE 1 B C 1
75 G_75 1518 RESIDUE 1 B G 1
76 C_76 1540 RESIDUE 1 B C 1
77 G_77 1559 RESIDUE 1 B G 1
78 C_78 1581 RESIDUE 1 B C 1
79 G_79 1600 RESIDUE 1 B G 1
80 C_80 1622 RESIDUE 1 B C 1
81 G_81 1641 RESIDUE 1 C G 1
82 C_82 1663 RESIDUE 1 C C 1
83 G_83 1682 RESIDUE 1 C G 1
84 C_84 1704 RESIDUE 1 C C 1
85 G_85 1723 RESIDUE 1 C G 1
86 C_86 1745 RESIDUE 1 C C 1
87 G_87 1764 RESIDUE 1 C G 1
88 C_88 1786 RESIDUE 1 C C 1
89 G_89 1805 RESIDUE 1 C G 1
90 C_90 1827 RESIDUE 1 C C 1
91 G_91 1846 RESIDUE 1 C G 1
92 C_92 1868 RESIDUE 1 C C 1
93 G_93 1887 RESIDUE 1 C G 1
94 C_94 1909 RESIDUE 1 C C 1
95 G_95 1928 RESIDUE 1 C G 1
96 C_96 1950 RESIDUE 1 C C 1
97 G_97 1969 RESIDUE 1 C G 1
98 C_98 1991 RESIDUE 1 C C 1
99 G_99 2010 RESIDUE 1 C G 1
100 C_100 2032 RESIDUE 1 C C 1
101 G_101 2051 RESIDUE 1 C G 1
102 C_102 2073 RESIDUE 1 C C 1
103 G_103 2092 RESIDUE 1 C G 1
104 C_104 2114 RESIDUE 1 C C 1
105 G_105 2133 RESIDUE 1 C G 1
106 C_106 2155 RESIDUE 1 C C 1
107 G_107 2174 RESIDUE 1 C G 1
108 C_108 2196 RESIDUE 1 C C 1
109 G_109 2215 RESIDUE 1 C G 1
110 C_110 2237 RESIDUE 1 C C 1
111 G_111 2256 RESIDUE 1 C G 1
112 C_112 2278 RESIDUE 1 C C 1
113 G_113 2297 RESIDUE 1 D G 1
114 G_114 2319 RESIDUE 1 D G 1
115 G_115 2341 RESIDUE 1 D G 1
116 G_116 2363 RESIDUE 1 D G 1
117 G_117 2385 RESIDUE 1 D G 1
118 G_118 2407 RESIDUE 1 D G 1
119 G_119 2429 RESIDUE 1 D G 1
120 G_120 2451 RESIDUE 1 D G 1
121 G_121 2473 RESIDUE 1 E G 1
122 C_122 2495 RESIDUE 1 E C 1
123 G_123 2514 RESIDUE 1 E G 1
124 C_124 2536 RESIDUE 1 E C 1
125 G_125 2555 RESIDUE 1 E G 1
126 C_126 2577 RESIDUE 1 E C 1
127 G_127 2596 RESIDUE 1 E G 1
128 C_128 2618 RESIDUE 1 E C 1
129 G_129 2637 RESIDUE 1 E G 1
130 C_130 2659 RESIDUE 1 E C 1
131 G_131 2678 RESIDUE 1 E G 1
132 C_132 2700 RESIDUE 1 E C 1
133 G_133 2719 RESIDUE 1 E G 1
134 C_134 2741 RESIDUE 1 E C 1
135 G_135 2760 RESIDUE 1 E G 1
136 C_136 2782 RESIDUE 1 E C 1
137 G_137 2801 RESIDUE 1 F G 1
138 C_138 2823 RESIDUE 1 F C 1
139 G_139 2842 RESIDUE 1 F G 1
140 C_140 2864 RESIDUE 1 F C 1
141 G_141 2883 RESIDUE 1 F G 1
142 C_142 2905 RESIDUE 1 F C 1
143 G_143 2924 RESIDUE 1 F G 1
144 C_144 2946 RESIDUE 1 F C 1
145 G_145 2965 RESIDUE 1 F G 1
146 C_146 2987 RESIDUE 1 F C 1
147 G_147 3006 RESIDUE 1 F G 1
148 C_148 3028 RESIDUE 1 F C 1
149 G_149 3047 RESIDUE 1 F G 1
150 C_150 3069 RESIDUE 1 F C 1
151 G_151 3088 RESIDUE 1 F G 1
152 C_152 3110 RESIDUE 1 F C 1
153 G_153 3129 RESIDUE 1 F G 1
154 C_154 3151 RESIDUE 1 F C 1
155 G_155 3170 RESIDUE 1 F G 1
156 C_156 3192 RESIDUE 1 F C 1
157 G_157 3211 RESIDUE 1 F G 1
158 C_158 3233 RESIDUE 1 F C 1
159 G_159 3252 RESIDUE 1 F G 1
160 C_160 3274 RESIDUE 1 F C 1
161 G_161 3293 RESIDUE 1 F G 1
162 C_162 3315 RESIDUE 1 F C 1
163 G_163 3334 RESIDUE 1 F G 1
164 C_164 3356 RESIDUE 1 F C 1
165 G_165 3375 RESIDUE 1 F G 1
166 C_166 3397 RESIDUE 1 F C 1
167 G_167 3416 RESIDUE 1 F G 1
168 C_168 3438 RESIDUE 1 F C 1
169 G_169 3457 RESIDUE 1 F G 1
170 C_170 3479 RESIDUE 1 F C 1
171 G_171 3498 RESIDUE 1 F G 1
172 C_172 3520 RESIDUE 1 F C 1
173 G_173 3539 RESIDUE 1 F G 1
174 C_174 3561 RESIDUE 1 F C 1
175 G_175 3580 RESIDUE 1 F G 1
176 C_176 3602 RESIDUE 1 F C 1
177 G_177 3621 RESIDUE 1 F G 1
178 C_178 3643 RESIDUE 1 F C 1
179 G_179 3662 RESIDUE 1 F G 1
180 C_180 3684 RESIDUE 1 F C 1
181 G_181 3703 RESIDUE 1 F G 1
182 C_182 3725 RESIDUE 1 F C 1
183 G_183 3744 RESIDUE 1 F G 1
184 C_184 3766 RESIDUE 1 F C 1
185 G_185 3785 RESIDUE 1 F G 1
186 C_186 3807 RESIDUE 1 F C 1
187 G_187 3826 RESIDUE 1 F G 1
188 C_188 3848 RESIDUE 1 F C 1
189 G_189 3867 RESIDUE 1 F G 1
190 C_190 3889 RESIDUE 1 F C 1
191 G_191 3908 RESIDUE 1 F G 1
192 C_192 3930 RESIDUE 1 F C 1
193 G_193 3949 RESIDUE 1 F G 1
194 C_194 3971 RESIDUE 1 F C 1
195 G_195 3990 RESIDUE 1 F G 1
196 C_196 4012 RESIDUE 1 F C 1
197 G_197 4031 RESIDUE 1 F G 1
198 C_198 4053 RESIDUE 1 F C 1
199 G_199 4072 RESIDUE 1 F G 1
200 C_200 4094 RESIDUE 1 F C 1
201 G_201 4113 RESIDUE 1 G G 1
202 C_202 4135 RESIDUE 1 G C 1
203 G_203 4154 RESIDUE 1 G G 1
204 C_204 4176 RESIDUE 1 G C 1
205 G_205 4195 RESIDUE 1 G G 1
206 C_206 4217 RESIDUE 1 G C 1
207 G_207 4236 RESIDUE 1 G G 1
208 C_208 4258 RESIDUE 1 G C 1
209 G_209 4277 RESIDUE 1 G G 1
210 C_210 4299 RESIDUE 1 G C 1
211 G_211 4318 RESIDUE 1 G G 1
212 C_212 4340 RESIDUE 1 G C 1
213 G_213 4359 RESIDUE 1 G G 1
214 C_214 4381 RESIDUE 1 G C 1
215 G_215 4400 RESIDUE 1 G G 1
216 C_216 4422 RESIDUE 1 G C 1
217 G_217 4441 RESIDUE 1 G G 1
218 C_218 4463 RESIDUE 1 G C 1
219 G_219 4482 RESIDUE 1 G G 1
220 C_220 4504 RESIDUE 1 G C 1
221 G_221 4523 RESIDUE 1 G G 1
222 C_222 4545 RESIDUE 1 G C 1
223 G_223 4564 RESIDUE 1 G G 1
224 C_224 4586 RESIDUE 1 G C 1
225 G_225 4605 RESIDUE 1 G G 1
226 C_226 4627 RESIDUE 1 G C 1
227 G_227 4646 RESIDUE 1 G G 1
228 C_228 4668 RESIDUE 1 G C 1
229 G_229 4687 RESIDUE 1 G G 1
230 C_230 4709 RESIDUE 1 G C 1
231 G_231 4728 RESIDUE 1 G G 1
232 C_232 4750 RESIDUE 1 G C 1
233 G_233 4769 RESIDUE 1 H G 1
234 C_234 4791 RESIDUE 1 H C 1
235 G_235 4810 RESIDUE 1 H G 1
236 C_236 4832 RESIDUE 1 H C 1
237 G_237 4851 RESIDUE 1 H G 1
238 C_238 4873 RESIDUE 1 H C 1
239 G_239 4892 RESIDUE 1 H G 1
240 C_240 4914 RESIDUE 1 H C 1
241 G_241 4933 RESIDUE 1 H G 1
242 C_242 4955 RESIDUE 1 H C 1
243 G_243 4974 RESIDUE 1 H G 1
244 C_244 4996 RESIDUE 1 H C 1
245 G_245 5015 RESIDUE 1 H G 1
246 C_246 5037 RESIDUE 1 H C 1
247 G_247 5056 RESIDUE 1 H G 1
248 C_248 5078 RESIDUE 1 H C 1
